<additional>
<inductionLoop id="-1008164510#0_det" lane="-1008164510#0_0" pos="-5" file="NUL" friendlyPos="True"/>
<inductionLoop id="-1008164510#1_det" lane="-1008164510#1_0" pos="-5" file="NUL" friendlyPos="True"/>
<inductionLoop id="-1008164510#2_det" lane="-1008164510#2_0" pos="-5" file="NUL" friendlyPos="True"/>
<inductionLoop id="-1009960152_det" lane="-1009960152_0" pos="-5" file="NUL" friendlyPos="True"/>
<inductionLoop id="-1087176578#0_det" lane="-1087176578#0_0" pos="-5" file="NUL" friendlyPos="True"/>
<inductionLoop id="-1087176578#1_det" lane="-1087176578#1_0" pos="-5" file="NUL" friendlyPos="True"/>
<inductionLoop id="-1102940999_det" lane="-1102940999_0" pos="-5" file="NUL" friendlyPos="True"/>
<inductionLoop id="-1102941002_det" lane="-1102941002_0" pos="-5" file="NUL" friendlyPos="True"/>
<inductionLoop id="-1102941004_det" lane="-1102941004_0" pos="-5" file="NUL" friendlyPos="True"/>
<inductionLoop id="-1160860396_det" lane="-1160860396_0" pos="-5" file="NUL" friendlyPos="True"/>
<inductionLoop id="-1165351178#0_det" lane="-1165351178#0_0" pos="-5" file="NUL" friendlyPos="True"/>
<inductionLoop id="-1165351178#1_det" lane="-1165351178#1_0" pos="-5" file="NUL" friendlyPos="True"/>
<inductionLoop id="-123654790#0_det" lane="-123654790#0_0" pos="-5" file="NUL" friendlyPos="True"/>
<inductionLoop id="-123654790#1_det" lane="-123654790#1_0" pos="-5" file="NUL" friendlyPos="True"/>
<inductionLoop id="-1338628098_det" lane="-1338628098_0" pos="-5" file="NUL" friendlyPos="True"/>
<inductionLoop id="-1338885896#0_det" lane="-1338885896#0_0" pos="-5" file="NUL" friendlyPos="True"/>
<inductionLoop id="-1338885896#1_det" lane="-1338885896#1_0" pos="-5" file="NUL" friendlyPos="True"/>
<inductionLoop id="-1338885896#2_det" lane="-1338885896#2_0" pos="-5" file="NUL" friendlyPos="True"/>
<inductionLoop id="-1338885896#3_det" lane="-1338885896#3_0" pos="-5" file="NUL" friendlyPos="True"/>
<inductionLoop id="-1338885897_det" lane="-1338885897_0" pos="-5" file="NUL" friendlyPos="True"/>
<inductionLoop id="-1338885898#0_det" lane="-1338885898#0_0" pos="-5" file="NUL" friendlyPos="True"/>
<inductionLoop id="-1338885898#1_det" lane="-1338885898#1_0" pos="-5" file="NUL" friendlyPos="True"/>
<inductionLoop id="-1338885898#2_det" lane="-1338885898#2_0" pos="-5" file="NUL" friendlyPos="True"/>
<inductionLoop id="-1338885898#3_det" lane="-1338885898#3_0" pos="-5" file="NUL" friendlyPos="True"/>
<inductionLoop id="-1338885899_det" lane="-1338885899_0" pos="-5" file="NUL" friendlyPos="True"/>
<inductionLoop id="-1339656343_det" lane="-1339656343_0" pos="-5" file="NUL" friendlyPos="True"/>
<inductionLoop id="-1339670605_det" lane="-1339670605_0" pos="-5" file="NUL" friendlyPos="True"/>
<inductionLoop id="-1339693196_det" lane="-1339693196_0" pos="-5" file="NUL" friendlyPos="True"/>
<inductionLoop id="-1339833926_det" lane="-1339833926_0" pos="-5" file="NUL" friendlyPos="True"/>
<inductionLoop id="-1339913720#1_det" lane="-1339913720#1_0" pos="-5" file="NUL" friendlyPos="True"/>
<inductionLoop id="-1339919080#0_det" lane="-1339919080#0_0" pos="-5" file="NUL" friendlyPos="True"/>
<inductionLoop id="-1339919080#1_det" lane="-1339919080#1_0" pos="-5" file="NUL" friendlyPos="True"/>
<inductionLoop id="-1340121846#0_det" lane="-1340121846#0_0" pos="-5" file="NUL" friendlyPos="True"/>
<inductionLoop id="-1340121846#1_det" lane="-1340121846#1_0" pos="-5" file="NUL" friendlyPos="True"/>
<inductionLoop id="-1350016835#0_det" lane="-1350016835#0_0" pos="-5" file="NUL" friendlyPos="True"/>
<inductionLoop id="-1350016835#1_det" lane="-1350016835#1_0" pos="-5" file="NUL" friendlyPos="True"/>
<inductionLoop id="-1350016836_det" lane="-1350016836_0" pos="-5" file="NUL" friendlyPos="True"/>
<inductionLoop id="-1350016837_det" lane="-1350016837_0" pos="-5" file="NUL" friendlyPos="True"/>
<inductionLoop id="-1351643097_det" lane="-1351643097_0" pos="-5" file="NUL" friendlyPos="True"/>
<inductionLoop id="-1351657493#0_det" lane="-1351657493#0_0" pos="-5" file="NUL" friendlyPos="True"/>
<inductionLoop id="-1351657493#1_det" lane="-1351657493#1_0" pos="-5" file="NUL" friendlyPos="True"/>
<inductionLoop id="-1351657493#2_det" lane="-1351657493#2_0" pos="-5" file="NUL" friendlyPos="True"/>
<inductionLoop id="-1359538743_det" lane="-1359538743_0" pos="-5" file="NUL" friendlyPos="True"/>
<inductionLoop id="-1373790083_det" lane="-1373790083_0" pos="-5" file="NUL" friendlyPos="True"/>
<inductionLoop id="-1373790084_det" lane="-1373790084_0" pos="-5" file="NUL" friendlyPos="True"/>
<inductionLoop id="-1373830881#0_det" lane="-1373830881#0_0" pos="-5" file="NUL" friendlyPos="True"/>
<inductionLoop id="-1373830881#1_det" lane="-1373830881#1_0" pos="-5" file="NUL" friendlyPos="True"/>
<inductionLoop id="-1373830881#2_det" lane="-1373830881#2_0" pos="-5" file="NUL" friendlyPos="True"/>
<inductionLoop id="-1373830881#3_det" lane="-1373830881#3_0" pos="-5" file="NUL" friendlyPos="True"/>
<inductionLoop id="-1373830881#4_det" lane="-1373830881#4_0" pos="-5" file="NUL" friendlyPos="True"/>
<inductionLoop id="-1373830881#6_det" lane="-1373830881#6_0" pos="-5" file="NUL" friendlyPos="True"/>
<inductionLoop id="-137901143_det" lane="-137901143_0" pos="-5" file="NUL" friendlyPos="True"/>
<inductionLoop id="-137901144#0_det" lane="-137901144#0_0" pos="-5" file="NUL" friendlyPos="True"/>
<inductionLoop id="-137901144#1_det" lane="-137901144#1_0" pos="-5" file="NUL" friendlyPos="True"/>
<inductionLoop id="-137901144#2_det" lane="-137901144#2_0" pos="-5" file="NUL" friendlyPos="True"/>
<inductionLoop id="-137901144#3_det" lane="-137901144#3_0" pos="-5" file="NUL" friendlyPos="True"/>
<inductionLoop id="-137901154#0_det" lane="-137901154#0_0" pos="-5" file="NUL" friendlyPos="True"/>
<inductionLoop id="-137901154#1_det" lane="-137901154#1_0" pos="-5" file="NUL" friendlyPos="True"/>
<inductionLoop id="-137901163#0_det" lane="-137901163#0_0" pos="-5" file="NUL" friendlyPos="True"/>
<inductionLoop id="-137901163#1_det" lane="-137901163#1_0" pos="-5" file="NUL" friendlyPos="True"/>
<inductionLoop id="-137901164#0_det" lane="-137901164#0_0" pos="-5" file="NUL" friendlyPos="True"/>
<inductionLoop id="-137901164#1_det" lane="-137901164#1_0" pos="-5" file="NUL" friendlyPos="True"/>
<inductionLoop id="-137901190#0_det" lane="-137901190#0_0" pos="-5" file="NUL" friendlyPos="True"/>
<inductionLoop id="-137901190#1_det" lane="-137901190#1_0" pos="-5" file="NUL" friendlyPos="True"/>
<inductionLoop id="-137901190#2_det" lane="-137901190#2_0" pos="-5" file="NUL" friendlyPos="True"/>
<inductionLoop id="-137901191#0_det" lane="-137901191#0_0" pos="-5" file="NUL" friendlyPos="True"/>
<inductionLoop id="-137901191#1_det" lane="-137901191#1_0" pos="-5" file="NUL" friendlyPos="True"/>
<inductionLoop id="-137901196_det" lane="-137901196_0" pos="-5" file="NUL" friendlyPos="True"/>
<inductionLoop id="-137901200_det" lane="-137901200_0" pos="-5" file="NUL" friendlyPos="True"/>
<inductionLoop id="-137901204#0_det" lane="-137901204#0_0" pos="-5" file="NUL" friendlyPos="True"/>
<inductionLoop id="-137901204#1_det" lane="-137901204#1_0" pos="-5" file="NUL" friendlyPos="True"/>
<inductionLoop id="-137901204#2_det" lane="-137901204#2_0" pos="-5" file="NUL" friendlyPos="True"/>
<inductionLoop id="-137901204#3_det" lane="-137901204#3_0" pos="-5" file="NUL" friendlyPos="True"/>
<inductionLoop id="-137901204#4_det" lane="-137901204#4_0" pos="-5" file="NUL" friendlyPos="True"/>
<inductionLoop id="-137901204#5_det" lane="-137901204#5_0" pos="-5" file="NUL" friendlyPos="True"/>
<inductionLoop id="-137901204#6_det" lane="-137901204#6_0" pos="-5" file="NUL" friendlyPos="True"/>
<inductionLoop id="-137901205#0_det" lane="-137901205#0_0" pos="-5" file="NUL" friendlyPos="True"/>
<inductionLoop id="-137901205#1_det" lane="-137901205#1_0" pos="-5" file="NUL" friendlyPos="True"/>
<inductionLoop id="-137901205#2_det" lane="-137901205#2_0" pos="-5" file="NUL" friendlyPos="True"/>
<inductionLoop id="-137902318_det" lane="-137902318_0" pos="-5" file="NUL" friendlyPos="True"/>
<inductionLoop id="-137902323_det" lane="-137902323_0" pos="-5" file="NUL" friendlyPos="True"/>
<inductionLoop id="-137902325#0_det" lane="-137902325#0_0" pos="-5" file="NUL" friendlyPos="True"/>
<inductionLoop id="-137902325#1_det" lane="-137902325#1_0" pos="-5" file="NUL" friendlyPos="True"/>
<inductionLoop id="-137902329#0_det" lane="-137902329#0_0" pos="-5" file="NUL" friendlyPos="True"/>
<inductionLoop id="-137902329#1_det" lane="-137902329#1_0" pos="-5" file="NUL" friendlyPos="True"/>
<inductionLoop id="-137902331_det" lane="-137902331_0" pos="-5" file="NUL" friendlyPos="True"/>
<inductionLoop id="-137902332_det" lane="-137902332_0" pos="-5" file="NUL" friendlyPos="True"/>
<inductionLoop id="-137902340_det" lane="-137902340_0" pos="-5" file="NUL" friendlyPos="True"/>
<inductionLoop id="-137902344#0_det" lane="-137902344#0_0" pos="-5" file="NUL" friendlyPos="True"/>
<inductionLoop id="-137902344#1_det" lane="-137902344#1_0" pos="-5" file="NUL" friendlyPos="True"/>
<inductionLoop id="-137902345#0_det" lane="-137902345#0_0" pos="-5" file="NUL" friendlyPos="True"/>
<inductionLoop id="-137902345#1_det" lane="-137902345#1_0" pos="-5" file="NUL" friendlyPos="True"/>
<inductionLoop id="-137902346#0_det" lane="-137902346#0_0" pos="-5" file="NUL" friendlyPos="True"/>
<inductionLoop id="-137902352#0_det" lane="-137902352#0_0" pos="-5" file="NUL" friendlyPos="True"/>
<inductionLoop id="-137902352#1_det" lane="-137902352#1_0" pos="-5" file="NUL" friendlyPos="True"/>
<inductionLoop id="-138258155_det" lane="-138258155_0" pos="-5" file="NUL" friendlyPos="True"/>
<inductionLoop id="-138258160_det" lane="-138258160_0" pos="-5" file="NUL" friendlyPos="True"/>
<inductionLoop id="-138258168#0_det" lane="-138258168#0_0" pos="-5" file="NUL" friendlyPos="True"/>
<inductionLoop id="-138258168#1_det" lane="-138258168#1_0" pos="-5" file="NUL" friendlyPos="True"/>
<inductionLoop id="-138258168#2_det" lane="-138258168#2_0" pos="-5" file="NUL" friendlyPos="True"/>
<inductionLoop id="-138258168#3_det" lane="-138258168#3_0" pos="-5" file="NUL" friendlyPos="True"/>
<inductionLoop id="-138258169_det" lane="-138258169_0" pos="-5" file="NUL" friendlyPos="True"/>
<inductionLoop id="-138258173#0_det" lane="-138258173#0_0" pos="-5" file="NUL" friendlyPos="True"/>
<inductionLoop id="-138258173#1_det" lane="-138258173#1_0" pos="-5" file="NUL" friendlyPos="True"/>
<inductionLoop id="-138258178#0_det" lane="-138258178#0_0" pos="-5" file="NUL" friendlyPos="True"/>
<inductionLoop id="-138258178#1_det" lane="-138258178#1_0" pos="-5" file="NUL" friendlyPos="True"/>
<inductionLoop id="-138258888_det" lane="-138258888_0" pos="-5" file="NUL" friendlyPos="True"/>
<inductionLoop id="-138258889_det" lane="-138258889_0" pos="-5" file="NUL" friendlyPos="True"/>
<inductionLoop id="-138258893_det" lane="-138258893_0" pos="-5" file="NUL" friendlyPos="True"/>
<inductionLoop id="-138258894_det" lane="-138258894_0" pos="-5" file="NUL" friendlyPos="True"/>
<inductionLoop id="-138258897#0_det" lane="-138258897#0_0" pos="-5" file="NUL" friendlyPos="True"/>
<inductionLoop id="-138258897#1_det" lane="-138258897#1_0" pos="-5" file="NUL" friendlyPos="True"/>
<inductionLoop id="-138258898_det" lane="-138258898_0" pos="-5" file="NUL" friendlyPos="True"/>
<inductionLoop id="-138258902#0_det" lane="-138258902#0_0" pos="-5" file="NUL" friendlyPos="True"/>
<inductionLoop id="-138258902#1_det" lane="-138258902#1_0" pos="-5" file="NUL" friendlyPos="True"/>
<inductionLoop id="-138258914#0_det" lane="-138258914#0_0" pos="-5" file="NUL" friendlyPos="True"/>
<inductionLoop id="-138260571_det" lane="-138260571_0" pos="-5" file="NUL" friendlyPos="True"/>
<inductionLoop id="-138260572#0_det" lane="-138260572#0_0" pos="-5" file="NUL" friendlyPos="True"/>
<inductionLoop id="-138260572#1_det" lane="-138260572#1_0" pos="-5" file="NUL" friendlyPos="True"/>
<inductionLoop id="-138260573_det" lane="-138260573_0" pos="-5" file="NUL" friendlyPos="True"/>
<inductionLoop id="-138260586_det" lane="-138260586_0" pos="-5" file="NUL" friendlyPos="True"/>
<inductionLoop id="-138260590_det" lane="-138260590_0" pos="-5" file="NUL" friendlyPos="True"/>
<inductionLoop id="-138260600#0_det" lane="-138260600#0_0" pos="-5" file="NUL" friendlyPos="True"/>
<inductionLoop id="-138260600#1_det" lane="-138260600#1_0" pos="-5" file="NUL" friendlyPos="True"/>
<inductionLoop id="-138260600#2_det" lane="-138260600#2_0" pos="-5" file="NUL" friendlyPos="True"/>
<inductionLoop id="-138260603#0_det" lane="-138260603#0_0" pos="-5" file="NUL" friendlyPos="True"/>
<inductionLoop id="-138260603#1_det" lane="-138260603#1_0" pos="-5" file="NUL" friendlyPos="True"/>
<inductionLoop id="-138260605#0_det" lane="-138260605#0_0" pos="-5" file="NUL" friendlyPos="True"/>
<inductionLoop id="-138260605#1_det" lane="-138260605#1_0" pos="-5" file="NUL" friendlyPos="True"/>
<inductionLoop id="-138260606_det" lane="-138260606_0" pos="-5" file="NUL" friendlyPos="True"/>
<inductionLoop id="-138260627#0_det" lane="-138260627#0_0" pos="-5" file="NUL" friendlyPos="True"/>
<inductionLoop id="-138260627#1_det" lane="-138260627#1_0" pos="-5" file="NUL" friendlyPos="True"/>
<inductionLoop id="-138261771_det" lane="-138261771_0" pos="-5" file="NUL" friendlyPos="True"/>
<inductionLoop id="-138261772_det" lane="-138261772_0" pos="-5" file="NUL" friendlyPos="True"/>
<inductionLoop id="-138264765#1_det" lane="-138264765#1_0" pos="-5" file="NUL" friendlyPos="True"/>
<inductionLoop id="-138264766#0_det" lane="-138264766#0_0" pos="-5" file="NUL" friendlyPos="True"/>
<inductionLoop id="-138264766#1_det" lane="-138264766#1_0" pos="-5" file="NUL" friendlyPos="True"/>
<inductionLoop id="-13938275#0_det" lane="-13938275#0_0" pos="-5" file="NUL" friendlyPos="True"/>
<inductionLoop id="-13938275#1_det" lane="-13938275#1_0" pos="-5" file="NUL" friendlyPos="True"/>
<inductionLoop id="-14129274#0_det" lane="-14129274#0_0" pos="-5" file="NUL" friendlyPos="True"/>
<inductionLoop id="-14129274#1_det" lane="-14129274#1_0" pos="-5" file="NUL" friendlyPos="True"/>
<inductionLoop id="-14129274#2_det" lane="-14129274#2_0" pos="-5" file="NUL" friendlyPos="True"/>
<inductionLoop id="-14129274#3_det" lane="-14129274#3_0" pos="-5" file="NUL" friendlyPos="True"/>
<inductionLoop id="-14129274#4_det" lane="-14129274#4_0" pos="-5" file="NUL" friendlyPos="True"/>
<inductionLoop id="-14129274#5_det" lane="-14129274#5_0" pos="-5" file="NUL" friendlyPos="True"/>
<inductionLoop id="-14129274#6_det" lane="-14129274#6_0" pos="-5" file="NUL" friendlyPos="True"/>
<inductionLoop id="-14129274#7_det" lane="-14129274#7_0" pos="-5" file="NUL" friendlyPos="True"/>
<inductionLoop id="-14129274#8_det" lane="-14129274#8_0" pos="-5" file="NUL" friendlyPos="True"/>
<inductionLoop id="-14129657#0_det" lane="-14129657#0_0" pos="-5" file="NUL" friendlyPos="True"/>
<inductionLoop id="-14129657#1_det" lane="-14129657#1_0" pos="-5" file="NUL" friendlyPos="True"/>
<inductionLoop id="-148726244#0_det" lane="-148726244#0_0" pos="-5" file="NUL" friendlyPos="True"/>
<inductionLoop id="-148726244#1_det" lane="-148726244#1_0" pos="-5" file="NUL" friendlyPos="True"/>
<inductionLoop id="-148726244#2_det" lane="-148726244#2_0" pos="-5" file="NUL" friendlyPos="True"/>
<inductionLoop id="-148726244#3_det" lane="-148726244#3_0" pos="-5" file="NUL" friendlyPos="True"/>
<inductionLoop id="-148726253#0_det" lane="-148726253#0_0" pos="-5" file="NUL" friendlyPos="True"/>
<inductionLoop id="-148726253#1_det" lane="-148726253#1_0" pos="-5" file="NUL" friendlyPos="True"/>
<inductionLoop id="-155612729_det" lane="-155612729_0" pos="-5" file="NUL" friendlyPos="True"/>
<inductionLoop id="-175820999#0_det" lane="-175820999#0_0" pos="-5" file="NUL" friendlyPos="True"/>
<inductionLoop id="-175820999#1_det" lane="-175820999#1_0" pos="-5" file="NUL" friendlyPos="True"/>
<inductionLoop id="-175820999#2_det" lane="-175820999#2_0" pos="-5" file="NUL" friendlyPos="True"/>
<inductionLoop id="-175820999#3_det" lane="-175820999#3_0" pos="-5" file="NUL" friendlyPos="True"/>
<inductionLoop id="-175820999#4_det" lane="-175820999#4_0" pos="-5" file="NUL" friendlyPos="True"/>
<inductionLoop id="-175820999#5_det" lane="-175820999#5_0" pos="-5" file="NUL" friendlyPos="True"/>
<inductionLoop id="-175820999#6_det" lane="-175820999#6_0" pos="-5" file="NUL" friendlyPos="True"/>
<inductionLoop id="-175820999#7_det" lane="-175820999#7_0" pos="-5" file="NUL" friendlyPos="True"/>
<inductionLoop id="-175820999#8_det" lane="-175820999#8_0" pos="-5" file="NUL" friendlyPos="True"/>
<inductionLoop id="-175820999#9_det" lane="-175820999#9_0" pos="-5" file="NUL" friendlyPos="True"/>
<inductionLoop id="-202778212_det" lane="-202778212_0" pos="-5" file="NUL" friendlyPos="True"/>
<inductionLoop id="-210883226#1_det" lane="-210883226#1_0" pos="-5" file="NUL" friendlyPos="True"/>
<inductionLoop id="-234483475#0_det" lane="-234483475#0_0" pos="-5" file="NUL" friendlyPos="True"/>
<inductionLoop id="-234483475#1_det" lane="-234483475#1_0" pos="-5" file="NUL" friendlyPos="True"/>
<inductionLoop id="-234483475#2_det" lane="-234483475#2_0" pos="-5" file="NUL" friendlyPos="True"/>
<inductionLoop id="-23756299#2_det" lane="-23756299#2_0" pos="-5" file="NUL" friendlyPos="True"/>
<inductionLoop id="-23756299#3_det" lane="-23756299#3_0" pos="-5" file="NUL" friendlyPos="True"/>
<inductionLoop id="-23756299#4_det" lane="-23756299#4_0" pos="-5" file="NUL" friendlyPos="True"/>
<inductionLoop id="-23756299#5_det" lane="-23756299#5_0" pos="-5" file="NUL" friendlyPos="True"/>
<inductionLoop id="-272325100#0_det" lane="-272325100#0_0" pos="-5" file="NUL" friendlyPos="True"/>
<inductionLoop id="-272325100#1_det" lane="-272325100#1_0" pos="-5" file="NUL" friendlyPos="True"/>
<inductionLoop id="-272325100#2_det" lane="-272325100#2_0" pos="-5" file="NUL" friendlyPos="True"/>
<inductionLoop id="-272325106_det" lane="-272325106_0" pos="-5" file="NUL" friendlyPos="True"/>
<inductionLoop id="-272325110_det" lane="-272325110_0" pos="-5" file="NUL" friendlyPos="True"/>
<inductionLoop id="-272325121#0_det" lane="-272325121#0_0" pos="-5" file="NUL" friendlyPos="True"/>
<inductionLoop id="-272325124#0_det" lane="-272325124#0_0" pos="-5" file="NUL" friendlyPos="True"/>
<inductionLoop id="-272325124#1_det" lane="-272325124#1_0" pos="-5" file="NUL" friendlyPos="True"/>
<inductionLoop id="-272325124#2_det" lane="-272325124#2_0" pos="-5" file="NUL" friendlyPos="True"/>
<inductionLoop id="-272325124#3_det" lane="-272325124#3_0" pos="-5" file="NUL" friendlyPos="True"/>
<inductionLoop id="-272325124#4_det" lane="-272325124#4_0" pos="-5" file="NUL" friendlyPos="True"/>
<inductionLoop id="-272325124#5_det" lane="-272325124#5_0" pos="-5" file="NUL" friendlyPos="True"/>
<inductionLoop id="-272325124#6_det" lane="-272325124#6_0" pos="-5" file="NUL" friendlyPos="True"/>
<inductionLoop id="-272325124#7_det" lane="-272325124#7_0" pos="-5" file="NUL" friendlyPos="True"/>
<inductionLoop id="-272325124#8_det" lane="-272325124#8_0" pos="-5" file="NUL" friendlyPos="True"/>
<inductionLoop id="-272325131#0_det" lane="-272325131#0_0" pos="-5" file="NUL" friendlyPos="True"/>
<inductionLoop id="-272325131#1_det" lane="-272325131#1_0" pos="-5" file="NUL" friendlyPos="True"/>
<inductionLoop id="-272325131#2_det" lane="-272325131#2_0" pos="-5" file="NUL" friendlyPos="True"/>
<inductionLoop id="-272325131#3_det" lane="-272325131#3_0" pos="-5" file="NUL" friendlyPos="True"/>
<inductionLoop id="-272325131#4_det" lane="-272325131#4_0" pos="-5" file="NUL" friendlyPos="True"/>
<inductionLoop id="-272325131#5_det" lane="-272325131#5_0" pos="-5" file="NUL" friendlyPos="True"/>
<inductionLoop id="-272325156_det" lane="-272325156_0" pos="-5" file="NUL" friendlyPos="True"/>
<inductionLoop id="-272325160#0_det" lane="-272325160#0_0" pos="-5" file="NUL" friendlyPos="True"/>
<inductionLoop id="-272325160#1_det" lane="-272325160#1_0" pos="-5" file="NUL" friendlyPos="True"/>
<inductionLoop id="-272325160#2_det" lane="-272325160#2_0" pos="-5" file="NUL" friendlyPos="True"/>
<inductionLoop id="-272325160#3_det" lane="-272325160#3_0" pos="-5" file="NUL" friendlyPos="True"/>
<inductionLoop id="-272325160#4_det" lane="-272325160#4_0" pos="-5" file="NUL" friendlyPos="True"/>
<inductionLoop id="-272325161#0_det" lane="-272325161#0_0" pos="-5" file="NUL" friendlyPos="True"/>
<inductionLoop id="-272325161#1_det" lane="-272325161#1_0" pos="-5" file="NUL" friendlyPos="True"/>
<inductionLoop id="-272325161#2_det" lane="-272325161#2_0" pos="-5" file="NUL" friendlyPos="True"/>
<inductionLoop id="-272325161#3_det" lane="-272325161#3_0" pos="-5" file="NUL" friendlyPos="True"/>
<inductionLoop id="-272325161#4_det" lane="-272325161#4_0" pos="-5" file="NUL" friendlyPos="True"/>
<inductionLoop id="-272325161#5_det" lane="-272325161#5_0" pos="-5" file="NUL" friendlyPos="True"/>
<inductionLoop id="-272325161#6_det" lane="-272325161#6_0" pos="-5" file="NUL" friendlyPos="True"/>
<inductionLoop id="-272325161#7_det" lane="-272325161#7_0" pos="-5" file="NUL" friendlyPos="True"/>
<inductionLoop id="-272325164#0_det" lane="-272325164#0_0" pos="-5" file="NUL" friendlyPos="True"/>
<inductionLoop id="-272325164#1_det" lane="-272325164#1_0" pos="-5" file="NUL" friendlyPos="True"/>
<inductionLoop id="-272325164#2_det" lane="-272325164#2_0" pos="-5" file="NUL" friendlyPos="True"/>
<inductionLoop id="-272325164#3_det" lane="-272325164#3_0" pos="-5" file="NUL" friendlyPos="True"/>
<inductionLoop id="-272325186#0_det" lane="-272325186#0_0" pos="-5" file="NUL" friendlyPos="True"/>
<inductionLoop id="-272325188_det" lane="-272325188_0" pos="-5" file="NUL" friendlyPos="True"/>
<inductionLoop id="-272326701#0_det" lane="-272326701#0_0" pos="-5" file="NUL" friendlyPos="True"/>
<inductionLoop id="-272326701#1_det" lane="-272326701#1_0" pos="-5" file="NUL" friendlyPos="True"/>
<inductionLoop id="-272326706#0_det" lane="-272326706#0_0" pos="-5" file="NUL" friendlyPos="True"/>
<inductionLoop id="-272326706#1_det" lane="-272326706#1_0" pos="-5" file="NUL" friendlyPos="True"/>
<inductionLoop id="-272326707#0_det" lane="-272326707#0_0" pos="-5" file="NUL" friendlyPos="True"/>
<inductionLoop id="-272326707#1_det" lane="-272326707#1_0" pos="-5" file="NUL" friendlyPos="True"/>
<inductionLoop id="-272326707#2_det" lane="-272326707#2_0" pos="-5" file="NUL" friendlyPos="True"/>
<inductionLoop id="-272326707#3_det" lane="-272326707#3_0" pos="-5" file="NUL" friendlyPos="True"/>
<inductionLoop id="-272327839#0_det" lane="-272327839#0_0" pos="-5" file="NUL" friendlyPos="True"/>
<inductionLoop id="-272327839#1_det" lane="-272327839#1_0" pos="-5" file="NUL" friendlyPos="True"/>
<inductionLoop id="-272327839#2_det" lane="-272327839#2_0" pos="-5" file="NUL" friendlyPos="True"/>
<inductionLoop id="-272327839#3_det" lane="-272327839#3_0" pos="-5" file="NUL" friendlyPos="True"/>
<inductionLoop id="-284070542#1_det" lane="-284070542#1_0" pos="-5" file="NUL" friendlyPos="True"/>
<inductionLoop id="-284070542#2_det" lane="-284070542#2_0" pos="-5" file="NUL" friendlyPos="True"/>
<inductionLoop id="-29105186#0_det" lane="-29105186#0_0" pos="-5" file="NUL" friendlyPos="True"/>
<inductionLoop id="-29105186#1_det" lane="-29105186#1_0" pos="-5" file="NUL" friendlyPos="True"/>
<inductionLoop id="-29105205#0_det" lane="-29105205#0_0" pos="-5" file="NUL" friendlyPos="True"/>
<inductionLoop id="-29105205#1_det" lane="-29105205#1_0" pos="-5" file="NUL" friendlyPos="True"/>
<inductionLoop id="-29105205#2_det" lane="-29105205#2_0" pos="-5" file="NUL" friendlyPos="True"/>
<inductionLoop id="-29105205#3_det" lane="-29105205#3_0" pos="-5" file="NUL" friendlyPos="True"/>
<inductionLoop id="-29105205#4_det" lane="-29105205#4_0" pos="-5" file="NUL" friendlyPos="True"/>
<inductionLoop id="-29105205#5_det" lane="-29105205#5_0" pos="-5" file="NUL" friendlyPos="True"/>
<inductionLoop id="-29324141#0_det" lane="-29324141#0_0" pos="-5" file="NUL" friendlyPos="True"/>
<inductionLoop id="-29324141#1_det" lane="-29324141#1_0" pos="-5" file="NUL" friendlyPos="True"/>
<inductionLoop id="-30002371_det" lane="-30002371_0" pos="-5" file="NUL" friendlyPos="True"/>
<inductionLoop id="-30003458#0_det" lane="-30003458#0_0" pos="-5" file="NUL" friendlyPos="True"/>
<inductionLoop id="-30003458#1_det" lane="-30003458#1_0" pos="-5" file="NUL" friendlyPos="True"/>
<inductionLoop id="-30003458#2_det" lane="-30003458#2_0" pos="-5" file="NUL" friendlyPos="True"/>
<inductionLoop id="-30003458#3_det" lane="-30003458#3_0" pos="-5" file="NUL" friendlyPos="True"/>
<inductionLoop id="-30003458#4_det" lane="-30003458#4_0" pos="-5" file="NUL" friendlyPos="True"/>
<inductionLoop id="-30003458#5_det" lane="-30003458#5_0" pos="-5" file="NUL" friendlyPos="True"/>
<inductionLoop id="-30004312#0_det" lane="-30004312#0_0" pos="-5" file="NUL" friendlyPos="True"/>
<inductionLoop id="-30004312#1_det" lane="-30004312#1_0" pos="-5" file="NUL" friendlyPos="True"/>
<inductionLoop id="-30004312#2_det" lane="-30004312#2_0" pos="-5" file="NUL" friendlyPos="True"/>
<inductionLoop id="-30009625#0_det" lane="-30009625#0_0" pos="-5" file="NUL" friendlyPos="True"/>
<inductionLoop id="-30009625#1_det" lane="-30009625#1_0" pos="-5" file="NUL" friendlyPos="True"/>
<inductionLoop id="-30009625#2_det" lane="-30009625#2_0" pos="-5" file="NUL" friendlyPos="True"/>
<inductionLoop id="-30281608#0_det" lane="-30281608#0_0" pos="-5" file="NUL" friendlyPos="True"/>
<inductionLoop id="-30281608#1_det" lane="-30281608#1_0" pos="-5" file="NUL" friendlyPos="True"/>
<inductionLoop id="-30281608#10_det" lane="-30281608#10_0" pos="-5" file="NUL" friendlyPos="True"/>
<inductionLoop id="-30281608#11_det" lane="-30281608#11_0" pos="-5" file="NUL" friendlyPos="True"/>
<inductionLoop id="-30281608#12_det" lane="-30281608#12_0" pos="-5" file="NUL" friendlyPos="True"/>
<inductionLoop id="-30281608#2_det" lane="-30281608#2_0" pos="-5" file="NUL" friendlyPos="True"/>
<inductionLoop id="-30281608#3_det" lane="-30281608#3_0" pos="-5" file="NUL" friendlyPos="True"/>
<inductionLoop id="-30281608#4_det" lane="-30281608#4_0" pos="-5" file="NUL" friendlyPos="True"/>
<inductionLoop id="-30281608#5_det" lane="-30281608#5_0" pos="-5" file="NUL" friendlyPos="True"/>
<inductionLoop id="-30281608#6_det" lane="-30281608#6_0" pos="-5" file="NUL" friendlyPos="True"/>
<inductionLoop id="-30281608#7_det" lane="-30281608#7_0" pos="-5" file="NUL" friendlyPos="True"/>
<inductionLoop id="-30281608#8_det" lane="-30281608#8_0" pos="-5" file="NUL" friendlyPos="True"/>
<inductionLoop id="-30281608#9_det" lane="-30281608#9_0" pos="-5" file="NUL" friendlyPos="True"/>
<inductionLoop id="-30281657#0_det" lane="-30281657#0_0" pos="-5" file="NUL" friendlyPos="True"/>
<inductionLoop id="-30281657#1_det" lane="-30281657#1_0" pos="-5" file="NUL" friendlyPos="True"/>
<inductionLoop id="-30281657#2_det" lane="-30281657#2_0" pos="-5" file="NUL" friendlyPos="True"/>
<inductionLoop id="-30281819#0_det" lane="-30281819#0_0" pos="-5" file="NUL" friendlyPos="True"/>
<inductionLoop id="-30281819#1_det" lane="-30281819#1_0" pos="-5" file="NUL" friendlyPos="True"/>
<inductionLoop id="-30281855#0_det" lane="-30281855#0_0" pos="-5" file="NUL" friendlyPos="True"/>
<inductionLoop id="-30281855#1_det" lane="-30281855#1_0" pos="-5" file="NUL" friendlyPos="True"/>
<inductionLoop id="-30281855#2_det" lane="-30281855#2_0" pos="-5" file="NUL" friendlyPos="True"/>
<inductionLoop id="-30281855#3_det" lane="-30281855#3_0" pos="-5" file="NUL" friendlyPos="True"/>
<inductionLoop id="-30281855#4_det" lane="-30281855#4_0" pos="-5" file="NUL" friendlyPos="True"/>
<inductionLoop id="-30282049#0_det" lane="-30282049#0_0" pos="-5" file="NUL" friendlyPos="True"/>
<inductionLoop id="-30282049#1_det" lane="-30282049#1_0" pos="-5" file="NUL" friendlyPos="True"/>
<inductionLoop id="-30282072#0_det" lane="-30282072#0_0" pos="-5" file="NUL" friendlyPos="True"/>
<inductionLoop id="-30282072#1_det" lane="-30282072#1_0" pos="-5" file="NUL" friendlyPos="True"/>
<inductionLoop id="-30282072#2_det" lane="-30282072#2_0" pos="-5" file="NUL" friendlyPos="True"/>
<inductionLoop id="-30282944#0_det" lane="-30282944#0_0" pos="-5" file="NUL" friendlyPos="True"/>
<inductionLoop id="-30282944#1_det" lane="-30282944#1_0" pos="-5" file="NUL" friendlyPos="True"/>
<inductionLoop id="-30282944#2_det" lane="-30282944#2_0" pos="-5" file="NUL" friendlyPos="True"/>
<inductionLoop id="-30282979#0_det" lane="-30282979#0_0" pos="-5" file="NUL" friendlyPos="True"/>
<inductionLoop id="-30282979#1_det" lane="-30282979#1_0" pos="-5" file="NUL" friendlyPos="True"/>
<inductionLoop id="-30282979#2_det" lane="-30282979#2_0" pos="-5" file="NUL" friendlyPos="True"/>
<inductionLoop id="-30282979#3_det" lane="-30282979#3_0" pos="-5" file="NUL" friendlyPos="True"/>
<inductionLoop id="-30283129#0_det" lane="-30283129#0_0" pos="-5" file="NUL" friendlyPos="True"/>
<inductionLoop id="-30283129#1_det" lane="-30283129#1_0" pos="-5" file="NUL" friendlyPos="True"/>
<inductionLoop id="-30283129#2_det" lane="-30283129#2_0" pos="-5" file="NUL" friendlyPos="True"/>
<inductionLoop id="-30283129#3_det" lane="-30283129#3_0" pos="-5" file="NUL" friendlyPos="True"/>
<inductionLoop id="-361693179#0_det" lane="-361693179#0_0" pos="-5" file="NUL" friendlyPos="True"/>
<inductionLoop id="-361693179#1_det" lane="-361693179#1_0" pos="-5" file="NUL" friendlyPos="True"/>
<inductionLoop id="-361693180_det" lane="-361693180_0" pos="-5" file="NUL" friendlyPos="True"/>
<inductionLoop id="-38666401#0_det" lane="-38666401#0_0" pos="-5" file="NUL" friendlyPos="True"/>
<inductionLoop id="-38666401#1_det" lane="-38666401#1_0" pos="-5" file="NUL" friendlyPos="True"/>
<inductionLoop id="-38666401#2_det" lane="-38666401#2_0" pos="-5" file="NUL" friendlyPos="True"/>
<inductionLoop id="-38666403_det" lane="-38666403_0" pos="-5" file="NUL" friendlyPos="True"/>
<inductionLoop id="-38666770#0_det" lane="-38666770#0_0" pos="-5" file="NUL" friendlyPos="True"/>
<inductionLoop id="-38666770#1_det" lane="-38666770#1_0" pos="-5" file="NUL" friendlyPos="True"/>