<additional>
<inductionLoop id="-1016223781_det" lane="-1016223781_0" pos="-5" file="NUL" friendlyPos="True"/>
<inductionLoop id="-1062609830#0_det" lane="-1062609830#0_0" pos="-5" file="NUL" friendlyPos="True"/>
<inductionLoop id="-1062609830#1_det" lane="-1062609830#1_0" pos="-5" file="NUL" friendlyPos="True"/>
<inductionLoop id="-1062609830#2_det" lane="-1062609830#2_0" pos="-5" file="NUL" friendlyPos="True"/>
<inductionLoop id="-1062609830#3_det" lane="-1062609830#3_0" pos="-5" file="NUL" friendlyPos="True"/>
<inductionLoop id="-1062609832_det" lane="-1062609832_0" pos="-5" file="NUL" friendlyPos="True"/>
<inductionLoop id="-1062609834_det" lane="-1062609834_0" pos="-5" file="NUL" friendlyPos="True"/>
<inductionLoop id="-1078856745_det" lane="-1078856745_0" pos="-5" file="NUL" friendlyPos="True"/>
<inductionLoop id="-1078856750_det" lane="-1078856750_0" pos="-5" file="NUL" friendlyPos="True"/>
<inductionLoop id="-1089477908#0_det" lane="-1089477908#0_0" pos="-5" file="NUL" friendlyPos="True"/>
<inductionLoop id="-1089477908#1_det" lane="-1089477908#1_0" pos="-5" file="NUL" friendlyPos="True"/>
<inductionLoop id="-1089477908#2_det" lane="-1089477908#2_0" pos="-5" file="NUL" friendlyPos="True"/>
<inductionLoop id="-1104523974_det" lane="-1104523974_0" pos="-5" file="NUL" friendlyPos="True"/>
<inductionLoop id="-1104526781#0_det" lane="-1104526781#0_0" pos="-5" file="NUL" friendlyPos="True"/>
<inductionLoop id="-1104526781#1_det" lane="-1104526781#1_0" pos="-5" file="NUL" friendlyPos="True"/>
<inductionLoop id="-1104526785#0_det" lane="-1104526785#0_0" pos="-5" file="NUL" friendlyPos="True"/>
<inductionLoop id="-1125756489_det" lane="-1125756489_0" pos="-5" file="NUL" friendlyPos="True"/>
<inductionLoop id="-1126987416#0_det" lane="-1126987416#0_0" pos="-5" file="NUL" friendlyPos="True"/>
<inductionLoop id="-1126987416#1_det" lane="-1126987416#1_0" pos="-5" file="NUL" friendlyPos="True"/>
<inductionLoop id="-1130961584_det" lane="-1130961584_0" pos="-5" file="NUL" friendlyPos="True"/>
<inductionLoop id="-1130961587#0_det" lane="-1130961587#0_0" pos="-5" file="NUL" friendlyPos="True"/>
<inductionLoop id="-1130961587#1_det" lane="-1130961587#1_0" pos="-5" file="NUL" friendlyPos="True"/>
<inductionLoop id="-1130961588_det" lane="-1130961588_0" pos="-5" file="NUL" friendlyPos="True"/>
<inductionLoop id="-1160463763_det" lane="-1160463763_0" pos="-5" file="NUL" friendlyPos="True"/>
<inductionLoop id="-1160463765_det" lane="-1160463765_0" pos="-5" file="NUL" friendlyPos="True"/>
<inductionLoop id="-1160463766#0_det" lane="-1160463766#0_0" pos="-5" file="NUL" friendlyPos="True"/>
<inductionLoop id="-1160463766#1_det" lane="-1160463766#1_0" pos="-5" file="NUL" friendlyPos="True"/>
<inductionLoop id="-1160463768_det" lane="-1160463768_0" pos="-5" file="NUL" friendlyPos="True"/>
<inductionLoop id="-1160463770#0_det" lane="-1160463770#0_0" pos="-5" file="NUL" friendlyPos="True"/>
<inductionLoop id="-1160463770#1_det" lane="-1160463770#1_0" pos="-5" file="NUL" friendlyPos="True"/>
<inductionLoop id="-1160463770#2_det" lane="-1160463770#2_0" pos="-5" file="NUL" friendlyPos="True"/>
<inductionLoop id="-1160463770#3_det" lane="-1160463770#3_0" pos="-5" file="NUL" friendlyPos="True"/>
<inductionLoop id="-116829586_det" lane="-116829586_0" pos="-5" file="NUL" friendlyPos="True"/>
<inductionLoop id="-116829593_det" lane="-116829593_0" pos="-5" file="NUL" friendlyPos="True"/>
<inductionLoop id="-116829594#0_det" lane="-116829594#0_0" pos="-5" file="NUL" friendlyPos="True"/>
<inductionLoop id="-116829594#1_det" lane="-116829594#1_0" pos="-5" file="NUL" friendlyPos="True"/>
<inductionLoop id="-116829594#2_det" lane="-116829594#2_0" pos="-5" file="NUL" friendlyPos="True"/>
<inductionLoop id="-116829595_det" lane="-116829595_0" pos="-5" file="NUL" friendlyPos="True"/>
<inductionLoop id="-116829605#0_det" lane="-116829605#0_0" pos="-5" file="NUL" friendlyPos="True"/>
<inductionLoop id="-116829605#1_det" lane="-116829605#1_0" pos="-5" file="NUL" friendlyPos="True"/>
<inductionLoop id="-1178768426_det" lane="-1178768426_0" pos="-5" file="NUL" friendlyPos="True"/>
<inductionLoop id="-1178768427#0_det" lane="-1178768427#0_0" pos="-5" file="NUL" friendlyPos="True"/>
<inductionLoop id="-1178768427#1_det" lane="-1178768427#1_0" pos="-5" file="NUL" friendlyPos="True"/>
<inductionLoop id="-1178768427#2_det" lane="-1178768427#2_0" pos="-5" file="NUL" friendlyPos="True"/>
<inductionLoop id="-1178768427#3_det" lane="-1178768427#3_0" pos="-5" file="NUL" friendlyPos="True"/>
<inductionLoop id="-1183400432_det" lane="-1183400432_0" pos="-5" file="NUL" friendlyPos="True"/>
<inductionLoop id="-1239834276_det" lane="-1239834276_0" pos="-5" file="NUL" friendlyPos="True"/>
<inductionLoop id="-1239834277_det" lane="-1239834277_0" pos="-5" file="NUL" friendlyPos="True"/>
<inductionLoop id="-1265060065_det" lane="-1265060065_0" pos="-5" file="NUL" friendlyPos="True"/>
<inductionLoop id="-1265060066_det" lane="-1265060066_0" pos="-5" file="NUL" friendlyPos="True"/>
<inductionLoop id="-1265060720#2_det" lane="-1265060720#2_0" pos="-5" file="NUL" friendlyPos="True"/>
<inductionLoop id="-129506899#0_det" lane="-129506899#0_0" pos="-5" file="NUL" friendlyPos="True"/>
<inductionLoop id="-129506899#1_det" lane="-129506899#1_0" pos="-5" file="NUL" friendlyPos="True"/>
<inductionLoop id="-129506900#5_det" lane="-129506900#5_0" pos="-5" file="NUL" friendlyPos="True"/>
<inductionLoop id="-129506901_det" lane="-129506901_0" pos="-5" file="NUL" friendlyPos="True"/>
<inductionLoop id="-129506909#0_det" lane="-129506909#0_0" pos="-5" file="NUL" friendlyPos="True"/>
<inductionLoop id="-129506909#1_det" lane="-129506909#1_0" pos="-5" file="NUL" friendlyPos="True"/>
<inductionLoop id="-129506909#2_det" lane="-129506909#2_0" pos="-5" file="NUL" friendlyPos="True"/>
<inductionLoop id="-129506930#0_det" lane="-129506930#0_0" pos="-5" file="NUL" friendlyPos="True"/>
<inductionLoop id="-129506930#1_det" lane="-129506930#1_0" pos="-5" file="NUL" friendlyPos="True"/>
<inductionLoop id="-129506930#2_det" lane="-129506930#2_0" pos="-5" file="NUL" friendlyPos="True"/>
<inductionLoop id="-1299368200_det" lane="-1299368200_0" pos="-5" file="NUL" friendlyPos="True"/>
<inductionLoop id="-1315703301_det" lane="-1315703301_0" pos="-5" file="NUL" friendlyPos="True"/>
<inductionLoop id="-1328235064_det" lane="-1328235064_0" pos="-5" file="NUL" friendlyPos="True"/>
<inductionLoop id="-1328235065_det" lane="-1328235065_0" pos="-5" file="NUL" friendlyPos="True"/>
<inductionLoop id="-133881921_det" lane="-133881921_0" pos="-5" file="NUL" friendlyPos="True"/>
<inductionLoop id="-133881922#0_det" lane="-133881922#0_0" pos="-5" file="NUL" friendlyPos="True"/>
<inductionLoop id="-133881922#1_det" lane="-133881922#1_0" pos="-5" file="NUL" friendlyPos="True"/>
<inductionLoop id="-140834565#0_det" lane="-140834565#0_0" pos="-5" file="NUL" friendlyPos="True"/>
<inductionLoop id="-140834565#1_det" lane="-140834565#1_0" pos="-5" file="NUL" friendlyPos="True"/>
<inductionLoop id="-140834565#2_det" lane="-140834565#2_0" pos="-5" file="NUL" friendlyPos="True"/>
<inductionLoop id="-140834565#3_det" lane="-140834565#3_0" pos="-5" file="NUL" friendlyPos="True"/>
<inductionLoop id="-140834565#4_det" lane="-140834565#4_0" pos="-5" file="NUL" friendlyPos="True"/>
<inductionLoop id="-140834565#5_det" lane="-140834565#5_0" pos="-5" file="NUL" friendlyPos="True"/>
<inductionLoop id="-140834565#6_det" lane="-140834565#6_0" pos="-5" file="NUL" friendlyPos="True"/>
<inductionLoop id="-140834565#7_det" lane="-140834565#7_0" pos="-5" file="NUL" friendlyPos="True"/>
<inductionLoop id="-140834565#8_det" lane="-140834565#8_0" pos="-5" file="NUL" friendlyPos="True"/>
<inductionLoop id="-140834565#9_det" lane="-140834565#9_0" pos="-5" file="NUL" friendlyPos="True"/>
<inductionLoop id="-140834667#0_det" lane="-140834667#0_0" pos="-5" file="NUL" friendlyPos="True"/>
<inductionLoop id="-140834667#1_det" lane="-140834667#1_0" pos="-5" file="NUL" friendlyPos="True"/>
<inductionLoop id="-140834667#10_det" lane="-140834667#10_0" pos="-5" file="NUL" friendlyPos="True"/>
<inductionLoop id="-140834667#2_det" lane="-140834667#2_0" pos="-5" file="NUL" friendlyPos="True"/>
<inductionLoop id="-140834667#3_det" lane="-140834667#3_0" pos="-5" file="NUL" friendlyPos="True"/>
<inductionLoop id="-140834667#4_det" lane="-140834667#4_0" pos="-5" file="NUL" friendlyPos="True"/>
<inductionLoop id="-140834667#6_det" lane="-140834667#6_0" pos="-5" file="NUL" friendlyPos="True"/>
<inductionLoop id="-140834667#9_det" lane="-140834667#9_0" pos="-5" file="NUL" friendlyPos="True"/>
<inductionLoop id="-140836697_det" lane="-140836697_0" pos="-5" file="NUL" friendlyPos="True"/>
<inductionLoop id="-140837018_det" lane="-140837018_0" pos="-5" file="NUL" friendlyPos="True"/>
<inductionLoop id="-140838247#0_det" lane="-140838247#0_0" pos="-5" file="NUL" friendlyPos="True"/>
<inductionLoop id="-140838247#1_det" lane="-140838247#1_0" pos="-5" file="NUL" friendlyPos="True"/>
<inductionLoop id="-140838569_det" lane="-140838569_0" pos="-5" file="NUL" friendlyPos="True"/>
<inductionLoop id="-140838705#0_det" lane="-140838705#0_0" pos="-5" file="NUL" friendlyPos="True"/>
<inductionLoop id="-140838705#1_det" lane="-140838705#1_0" pos="-5" file="NUL" friendlyPos="True"/>
<inductionLoop id="-140888966_det" lane="-140888966_0" pos="-5" file="NUL" friendlyPos="True"/>
<inductionLoop id="-140889164#0_det" lane="-140889164#0_0" pos="-5" file="NUL" friendlyPos="True"/>
<inductionLoop id="-140889164#1_det" lane="-140889164#1_0" pos="-5" file="NUL" friendlyPos="True"/>
<inductionLoop id="-140889164#2_det" lane="-140889164#2_0" pos="-5" file="NUL" friendlyPos="True"/>
<inductionLoop id="-140889216#0_det" lane="-140889216#0_0" pos="-5" file="NUL" friendlyPos="True"/>
<inductionLoop id="-140889216#1_det" lane="-140889216#1_0" pos="-5" file="NUL" friendlyPos="True"/>
<inductionLoop id="-140889216#2_det" lane="-140889216#2_0" pos="-5" file="NUL" friendlyPos="True"/>
<inductionLoop id="-140889216#3_det" lane="-140889216#3_0" pos="-5" file="NUL" friendlyPos="True"/>
<inductionLoop id="-140889216#4_det" lane="-140889216#4_0" pos="-5" file="NUL" friendlyPos="True"/>
<inductionLoop id="-140889216#5_det" lane="-140889216#5_0" pos="-5" file="NUL" friendlyPos="True"/>
<inductionLoop id="-140889362#0_det" lane="-140889362#0_0" pos="-5" file="NUL" friendlyPos="True"/>
<inductionLoop id="-140889362#1_det" lane="-140889362#1_0" pos="-5" file="NUL" friendlyPos="True"/>
<inductionLoop id="-140901839#0_det" lane="-140901839#0_0" pos="-5" file="NUL" friendlyPos="True"/>
<inductionLoop id="-140901839#1_det" lane="-140901839#1_0" pos="-5" file="NUL" friendlyPos="True"/>
<inductionLoop id="-142613412#0_det" lane="-142613412#0_0" pos="-5" file="NUL" friendlyPos="True"/>
<inductionLoop id="-142613412#1_det" lane="-142613412#1_0" pos="-5" file="NUL" friendlyPos="True"/>
<inductionLoop id="-142613412#2_det" lane="-142613412#2_0" pos="-5" file="NUL" friendlyPos="True"/>
<inductionLoop id="-142613412#3_det" lane="-142613412#3_0" pos="-5" file="NUL" friendlyPos="True"/>
<inductionLoop id="-142613412#4_det" lane="-142613412#4_0" pos="-5" file="NUL" friendlyPos="True"/>
<inductionLoop id="-142613414_det" lane="-142613414_0" pos="-5" file="NUL" friendlyPos="True"/>
<inductionLoop id="-142646939#0_det" lane="-142646939#0_0" pos="-5" file="NUL" friendlyPos="True"/>
<inductionLoop id="-142646939#1_det" lane="-142646939#1_0" pos="-5" file="NUL" friendlyPos="True"/>
<inductionLoop id="-168323285_det" lane="-168323285_0" pos="-5" file="NUL" friendlyPos="True"/>
<inductionLoop id="-168323286#0_det" lane="-168323286#0_0" pos="-5" file="NUL" friendlyPos="True"/>
<inductionLoop id="-168323286#1_det" lane="-168323286#1_0" pos="-5" file="NUL" friendlyPos="True"/>
<inductionLoop id="-168323286#2_det" lane="-168323286#2_0" pos="-5" file="NUL" friendlyPos="True"/>
<inductionLoop id="-168323293_det" lane="-168323293_0" pos="-5" file="NUL" friendlyPos="True"/>
<inductionLoop id="-168323295#0_det" lane="-168323295#0_0" pos="-5" file="NUL" friendlyPos="True"/>
<inductionLoop id="-168323295#1_det" lane="-168323295#1_0" pos="-5" file="NUL" friendlyPos="True"/>
<inductionLoop id="-168323295#2_det" lane="-168323295#2_0" pos="-5" file="NUL" friendlyPos="True"/>
<inductionLoop id="-168323295#3_det" lane="-168323295#3_0" pos="-5" file="NUL" friendlyPos="True"/>
<inductionLoop id="-168323298#0_det" lane="-168323298#0_0" pos="-5" file="NUL" friendlyPos="True"/>
<inductionLoop id="-168323298#1_det" lane="-168323298#1_0" pos="-5" file="NUL" friendlyPos="True"/>
<inductionLoop id="-168323298#2_det" lane="-168323298#2_0" pos="-5" file="NUL" friendlyPos="True"/>
<inductionLoop id="-168323298#3_det" lane="-168323298#3_0" pos="-5" file="NUL" friendlyPos="True"/>
<inductionLoop id="-168323303#0_det" lane="-168323303#0_0" pos="-5" file="NUL" friendlyPos="True"/>
<inductionLoop id="-168323303#1_det" lane="-168323303#1_0" pos="-5" file="NUL" friendlyPos="True"/>
<inductionLoop id="-168323303#2_det" lane="-168323303#2_0" pos="-5" file="NUL" friendlyPos="True"/>
<inductionLoop id="-168323305_det" lane="-168323305_0" pos="-5" file="NUL" friendlyPos="True"/>
<inductionLoop id="-168323306#0_det" lane="-168323306#0_0" pos="-5" file="NUL" friendlyPos="True"/>
<inductionLoop id="-168323306#1_det" lane="-168323306#1_0" pos="-5" file="NUL" friendlyPos="True"/>
<inductionLoop id="-168323308#0_det" lane="-168323308#0_0" pos="-5" file="NUL" friendlyPos="True"/>
<inductionLoop id="-168323308#1_det" lane="-168323308#1_0" pos="-5" file="NUL" friendlyPos="True"/>
<inductionLoop id="-168323308#2_det" lane="-168323308#2_0" pos="-5" file="NUL" friendlyPos="True"/>
<inductionLoop id="-168323308#3_det" lane="-168323308#3_0" pos="-5" file="NUL" friendlyPos="True"/>
<inductionLoop id="-168323308#4_det" lane="-168323308#4_0" pos="-5" file="NUL" friendlyPos="True"/>
<inductionLoop id="-168323310_det" lane="-168323310_0" pos="-5" file="NUL" friendlyPos="True"/>
<inductionLoop id="-168323316_det" lane="-168323316_0" pos="-5" file="NUL" friendlyPos="True"/>
<inductionLoop id="-168323332#0_det" lane="-168323332#0_0" pos="-5" file="NUL" friendlyPos="True"/>
<inductionLoop id="-168323332#1_det" lane="-168323332#1_0" pos="-5" file="NUL" friendlyPos="True"/>
<inductionLoop id="-168323334#0_det" lane="-168323334#0_0" pos="-5" file="NUL" friendlyPos="True"/>
<inductionLoop id="-168323334#1_det" lane="-168323334#1_0" pos="-5" file="NUL" friendlyPos="True"/>
<inductionLoop id="-168323334#2_det" lane="-168323334#2_0" pos="-5" file="NUL" friendlyPos="True"/>
<inductionLoop id="-168323337#0_det" lane="-168323337#0_0" pos="-5" file="NUL" friendlyPos="True"/>
<inductionLoop id="-168323337#1_det" lane="-168323337#1_0" pos="-5" file="NUL" friendlyPos="True"/>
<inductionLoop id="-168323337#2_det" lane="-168323337#2_0" pos="-5" file="NUL" friendlyPos="True"/>
<inductionLoop id="-168323337#3_det" lane="-168323337#3_0" pos="-5" file="NUL" friendlyPos="True"/>
<inductionLoop id="-168323337#4_det" lane="-168323337#4_0" pos="-5" file="NUL" friendlyPos="True"/>
<inductionLoop id="-168323340#0_det" lane="-168323340#0_0" pos="-5" file="NUL" friendlyPos="True"/>
<inductionLoop id="-168323340#1_det" lane="-168323340#1_0" pos="-5" file="NUL" friendlyPos="True"/>
<inductionLoop id="-168323340#2_det" lane="-168323340#2_0" pos="-5" file="NUL" friendlyPos="True"/>
<inductionLoop id="-168323340#3_det" lane="-168323340#3_0" pos="-5" file="NUL" friendlyPos="True"/>
<inductionLoop id="-168323342#0_det" lane="-168323342#0_0" pos="-5" file="NUL" friendlyPos="True"/>
<inductionLoop id="-168323342#1_det" lane="-168323342#1_0" pos="-5" file="NUL" friendlyPos="True"/>
<inductionLoop id="-168323342#2_det" lane="-168323342#2_0" pos="-5" file="NUL" friendlyPos="True"/>
<inductionLoop id="-168325524#0_det" lane="-168325524#0_0" pos="-5" file="NUL" friendlyPos="True"/>
<inductionLoop id="-168325524#1_det" lane="-168325524#1_0" pos="-5" file="NUL" friendlyPos="True"/>
<inductionLoop id="-168325526#0_det" lane="-168325526#0_0" pos="-5" file="NUL" friendlyPos="True"/>
<inductionLoop id="-168325526#1_det" lane="-168325526#1_0" pos="-5" file="NUL" friendlyPos="True"/>
<inductionLoop id="-168325527#2_det" lane="-168325527#2_0" pos="-5" file="NUL" friendlyPos="True"/>
<inductionLoop id="-168325532_det" lane="-168325532_0" pos="-5" file="NUL" friendlyPos="True"/>
<inductionLoop id="-168325533#0_det" lane="-168325533#0_0" pos="-5" file="NUL" friendlyPos="True"/>
<inductionLoop id="-168325535#0_det" lane="-168325535#0_0" pos="-5" file="NUL" friendlyPos="True"/>
<inductionLoop id="-168325535#1_det" lane="-168325535#1_0" pos="-5" file="NUL" friendlyPos="True"/>
<inductionLoop id="-168325538#0_det" lane="-168325538#0_0" pos="-5" file="NUL" friendlyPos="True"/>
<inductionLoop id="-168325538#1_det" lane="-168325538#1_0" pos="-5" file="NUL" friendlyPos="True"/>
<inductionLoop id="-175104023#0_det" lane="-175104023#0_0" pos="-5" file="NUL" friendlyPos="True"/>
<inductionLoop id="-175104023#1_det" lane="-175104023#1_0" pos="-5" file="NUL" friendlyPos="True"/>
<inductionLoop id="-175104023#2_det" lane="-175104023#2_0" pos="-5" file="NUL" friendlyPos="True"/>
<inductionLoop id="-175104023#3_det" lane="-175104023#3_0" pos="-5" file="NUL" friendlyPos="True"/>
<inductionLoop id="-175104023#4_det" lane="-175104023#4_0" pos="-5" file="NUL" friendlyPos="True"/>
<inductionLoop id="-175104023#5_det" lane="-175104023#5_0" pos="-5" file="NUL" friendlyPos="True"/>
<inductionLoop id="-175104023#6_det" lane="-175104023#6_0" pos="-5" file="NUL" friendlyPos="True"/>
<inductionLoop id="-177011149_det" lane="-177011149_0" pos="-5" file="NUL" friendlyPos="True"/>
<inductionLoop id="-177790375#0_det" lane="-177790375#0_0" pos="-5" file="NUL" friendlyPos="True"/>
<inductionLoop id="-177790375#1_det" lane="-177790375#1_0" pos="-5" file="NUL" friendlyPos="True"/>
<inductionLoop id="-177790375#2_det" lane="-177790375#2_0" pos="-5" file="NUL" friendlyPos="True"/>
<inductionLoop id="-177790376#0_det" lane="-177790376#0_0" pos="-5" file="NUL" friendlyPos="True"/>
<inductionLoop id="-177790376#1_det" lane="-177790376#1_0" pos="-5" file="NUL" friendlyPos="True"/>
<inductionLoop id="-177790376#2_det" lane="-177790376#2_0" pos="-5" file="NUL" friendlyPos="True"/>
<inductionLoop id="-177790376#3_det" lane="-177790376#3_0" pos="-5" file="NUL" friendlyPos="True"/>
<inductionLoop id="-177790376#4_det" lane="-177790376#4_0" pos="-5" file="NUL" friendlyPos="True"/>
<inductionLoop id="-177790381#0_det" lane="-177790381#0_0" pos="-5" file="NUL" friendlyPos="True"/>
<inductionLoop id="-177790381#1_det" lane="-177790381#1_0" pos="-5" file="NUL" friendlyPos="True"/>
<inductionLoop id="-177790381#2_det" lane="-177790381#2_0" pos="-5" file="NUL" friendlyPos="True"/>
<inductionLoop id="-177790381#3_det" lane="-177790381#3_0" pos="-5" file="NUL" friendlyPos="True"/>
<inductionLoop id="-177790381#4_det" lane="-177790381#4_0" pos="-5" file="NUL" friendlyPos="True"/>
<inductionLoop id="-177790381#5_det" lane="-177790381#5_0" pos="-5" file="NUL" friendlyPos="True"/>
<inductionLoop id="-177790381#6_det" lane="-177790381#6_0" pos="-5" file="NUL" friendlyPos="True"/>
<inductionLoop id="-177790381#7_det" lane="-177790381#7_0" pos="-5" file="NUL" friendlyPos="True"/>
<inductionLoop id="-177790381#8_det" lane="-177790381#8_0" pos="-5" file="NUL" friendlyPos="True"/>
<inductionLoop id="-177790381#9_det" lane="-177790381#9_0" pos="-5" file="NUL" friendlyPos="True"/>
<inductionLoop id="-177790382#0_det" lane="-177790382#0_0" pos="-5" file="NUL" friendlyPos="True"/>
<inductionLoop id="-177790382#1_det" lane="-177790382#1_0" pos="-5" file="NUL" friendlyPos="True"/>
<inductionLoop id="-177790385_det" lane="-177790385_0" pos="-5" file="NUL" friendlyPos="True"/>
<inductionLoop id="-177790387#0_det" lane="-177790387#0_0" pos="-5" file="NUL" friendlyPos="True"/>
<inductionLoop id="-177790387#1_det" lane="-177790387#1_0" pos="-5" file="NUL" friendlyPos="True"/>
<inductionLoop id="-177790389#0_det" lane="-177790389#0_0" pos="-5" file="NUL" friendlyPos="True"/>
<inductionLoop id="-177790389#1_det" lane="-177790389#1_0" pos="-5" file="NUL" friendlyPos="True"/>
<inductionLoop id="-177790391_det" lane="-177790391_0" pos="-5" file="NUL" friendlyPos="True"/>
<inductionLoop id="-177790392#0_det" lane="-177790392#0_0" pos="-5" file="NUL" friendlyPos="True"/>
<inductionLoop id="-177790392#1_det" lane="-177790392#1_0" pos="-5" file="NUL" friendlyPos="True"/>
<inductionLoop id="-177794935#0_det" lane="-177794935#0_0" pos="-5" file="NUL" friendlyPos="True"/>
<inductionLoop id="-177794935#1_det" lane="-177794935#1_0" pos="-5" file="NUL" friendlyPos="True"/>
<inductionLoop id="-177794935#2_det" lane="-177794935#2_0" pos="-5" file="NUL" friendlyPos="True"/>
<inductionLoop id="-177794935#3_det" lane="-177794935#3_0" pos="-5" file="NUL" friendlyPos="True"/>
<inductionLoop id="-177794938_det" lane="-177794938_0" pos="-5" file="NUL" friendlyPos="True"/>
<inductionLoop id="-177794940#0_det" lane="-177794940#0_0" pos="-5" file="NUL" friendlyPos="True"/>
<inductionLoop id="-177794940#1_det" lane="-177794940#1_0" pos="-5" file="NUL" friendlyPos="True"/>
<inductionLoop id="-177794940#2_det" lane="-177794940#2_0" pos="-5" file="NUL" friendlyPos="True"/>
<inductionLoop id="-177794940#3_det" lane="-177794940#3_0" pos="-5" file="NUL" friendlyPos="True"/>
<inductionLoop id="-177794940#4_det" lane="-177794940#4_0" pos="-5" file="NUL" friendlyPos="True"/>
<inductionLoop id="-177794942#0_det" lane="-177794942#0_0" pos="-5" file="NUL" friendlyPos="True"/>
<inductionLoop id="-177794942#1_det" lane="-177794942#1_0" pos="-5" file="NUL" friendlyPos="True"/>
<inductionLoop id="-177794943_det" lane="-177794943_0" pos="-5" file="NUL" friendlyPos="True"/>
<inductionLoop id="-177794946_det" lane="-177794946_0" pos="-5" file="NUL" friendlyPos="True"/>
<inductionLoop id="-177794947#0_det" lane="-177794947#0_0" pos="-5" file="NUL" friendlyPos="True"/>
<inductionLoop id="-177794947#1_det" lane="-177794947#1_0" pos="-5" file="NUL" friendlyPos="True"/>
<inductionLoop id="-177794947#2_det" lane="-177794947#2_0" pos="-5" file="NUL" friendlyPos="True"/>
<inductionLoop id="-177794948#0_det" lane="-177794948#0_0" pos="-5" file="NUL" friendlyPos="True"/>
<inductionLoop id="-177794948#1_det" lane="-177794948#1_0" pos="-5" file="NUL" friendlyPos="True"/>
<inductionLoop id="-177794948#2_det" lane="-177794948#2_0" pos="-5" file="NUL" friendlyPos="True"/>
<inductionLoop id="-177794949#0_det" lane="-177794949#0_0" pos="-5" file="NUL" friendlyPos="True"/>
<inductionLoop id="-177794949#1_det" lane="-177794949#1_0" pos="-5" file="NUL" friendlyPos="True"/>
<inductionLoop id="-177794949#2_det" lane="-177794949#2_0" pos="-5" file="NUL" friendlyPos="True"/>
<inductionLoop id="-177794950#0_det" lane="-177794950#0_0" pos="-5" file="NUL" friendlyPos="True"/>
<inductionLoop id="-177794950#1_det" lane="-177794950#1_0" pos="-5" file="NUL" friendlyPos="True"/>
<inductionLoop id="-177794950#2_det" lane="-177794950#2_0" pos="-5" file="NUL" friendlyPos="True"/>
<inductionLoop id="-177794951#0_det" lane="-177794951#0_0" pos="-5" file="NUL" friendlyPos="True"/>
<inductionLoop id="-177794951#1_det" lane="-177794951#1_0" pos="-5" file="NUL" friendlyPos="True"/>
<inductionLoop id="-177794951#2_det" lane="-177794951#2_0" pos="-5" file="NUL" friendlyPos="True"/>
<inductionLoop id="-177794951#3_det" lane="-177794951#3_0" pos="-5" file="NUL" friendlyPos="True"/>
<inductionLoop id="-177794951#4_det" lane="-177794951#4_0" pos="-5" file="NUL" friendlyPos="True"/>
<inductionLoop id="-177794952#0_det" lane="-177794952#0_0" pos="-5" file="NUL" friendlyPos="True"/>
<inductionLoop id="-177794952#1_det" lane="-177794952#1_0" pos="-5" file="NUL" friendlyPos="True"/>
<inductionLoop id="-177794952#2_det" lane="-177794952#2_0" pos="-5" file="NUL" friendlyPos="True"/>
<inductionLoop id="-177794952#3_det" lane="-177794952#3_0" pos="-5" file="NUL" friendlyPos="True"/>
<inductionLoop id="-177794952#4_det" lane="-177794952#4_0" pos="-5" file="NUL" friendlyPos="True"/>
<inductionLoop id="-177794952#5_det" lane="-177794952#5_0" pos="-5" file="NUL" friendlyPos="True"/>
<inductionLoop id="-177794953#0_det" lane="-177794953#0_0" pos="-5" file="NUL" friendlyPos="True"/>
<inductionLoop id="-177794953#1_det" lane="-177794953#1_0" pos="-5" file="NUL" friendlyPos="True"/>
<inductionLoop id="-177794953#2_det" lane="-177794953#2_0" pos="-5" file="NUL" friendlyPos="True"/>
<inductionLoop id="-177794954_det" lane="-177794954_0" pos="-5" file="NUL" friendlyPos="True"/>
<inductionLoop id="-177794955#0_det" lane="-177794955#0_0" pos="-5" file="NUL" friendlyPos="True"/>
<inductionLoop id="-177794955#1_det" lane="-177794955#1_0" pos="-5" file="NUL" friendlyPos="True"/>
<inductionLoop id="-177794955#2_det" lane="-177794955#2_0" pos="-5" file="NUL" friendlyPos="True"/>
<inductionLoop id="-177794956#0_det" lane="-177794956#0_0" pos="-5" file="NUL" friendlyPos="True"/>
<inductionLoop id="-177794956#1_det" lane="-177794956#1_0" pos="-5" file="NUL" friendlyPos="True"/>
<inductionLoop id="-177794956#2_det" lane="-177794956#2_0" pos="-5" file="NUL" friendlyPos="True"/>
<inductionLoop id="-177794956#3_det" lane="-177794956#3_0" pos="-5" file="NUL" friendlyPos="True"/>
<inductionLoop id="-177794956#4_det" lane="-177794956#4_0" pos="-5" file="NUL" friendlyPos="True"/>
<inductionLoop id="-177794956#5_det" lane="-177794956#5_0" pos="-5" file="NUL" friendlyPos="True"/>
<inductionLoop id="-177794956#6_det" lane="-177794956#6_0" pos="-5" file="NUL" friendlyPos="True"/>
<inductionLoop id="-177794956#7_det" lane="-177794956#7_0" pos="-5" file="NUL" friendlyPos="True"/>
<inductionLoop id="-177794956#8_det" lane="-177794956#8_0" pos="-5" file="NUL" friendlyPos="True"/>
<inductionLoop id="-177794957#0_det" lane="-177794957#0_0" pos="-5" file="NUL" friendlyPos="True"/>
<inductionLoop id="-177794957#1_det" lane="-177794957#1_0" pos="-5" file="NUL" friendlyPos="True"/>
<inductionLoop id="-177794957#2_det" lane="-177794957#2_0" pos="-5" file="NUL" friendlyPos="True"/>
<inductionLoop id="-177794959#0_det" lane="-177794959#0_0" pos="-5" file="NUL" friendlyPos="True"/>
<inductionLoop id="-177794959#1_det" lane="-177794959#1_0" pos="-5" file="NUL" friendlyPos="True"/>
<inductionLoop id="-177794961#0_det" lane="-177794961#0_0" pos="-5" file="NUL" friendlyPos="True"/>
<inductionLoop id="-177794961#1_det" lane="-177794961#1_0" pos="-5" file="NUL" friendlyPos="True"/>
<inductionLoop id="-177794961#2_det" lane="-177794961#2_0" pos="-5" file="NUL" friendlyPos="True"/>
<inductionLoop id="-177794961#3_det" lane="-177794961#3_0" pos="-5" file="NUL" friendlyPos="True"/>
<inductionLoop id="-177794961#4_det" lane="-177794961#4_0" pos="-5" file="NUL" friendlyPos="True"/>
<inductionLoop id="-177794961#5_det" lane="-177794961#5_0" pos="-5" file="NUL" friendlyPos="True"/>
<inductionLoop id="-177794961#6_det" lane="-177794961#6_0" pos="-5" file="NUL" friendlyPos="True"/>
<inductionLoop id="-177794961#7_det" lane="-177794961#7_0" pos="-5" file="NUL" friendlyPos="True"/>
<inductionLoop id="-177794962#0_det" lane="-177794962#0_0" pos="-5" file="NUL" friendlyPos="True"/>
<inductionLoop id="-177794962#1_det" lane="-177794962#1_0" pos="-5" file="NUL" friendlyPos="True"/>
<inductionLoop id="-177794962#2_det" lane="-177794962#2_0" pos="-5" file="NUL" friendlyPos="True"/>
<inductionLoop id="-177794962#3_det" lane="-177794962#3_0" pos="-5" file="NUL" friendlyPos="True"/>
<inductionLoop id="-177794962#4_det" lane="-177794962#4_0" pos="-5" file="NUL" friendlyPos="True"/>
<inductionLoop id="-177794962#5_det" lane="-177794962#5_0" pos="-5" file="NUL" friendlyPos="True"/>
<inductionLoop id="-177794962#6_det" lane="-177794962#6_0" pos="-5" file="NUL" friendlyPos="True"/>
<inductionLoop id="-177794962#7_det" lane="-177794962#7_0" pos="-5" file="NUL" friendlyPos="True"/>
<inductionLoop id="-177794962#8_det" lane="-177794962#8_0" pos="-5" file="NUL" friendlyPos="True"/>
<inductionLoop id="-177794963#0_det" lane="-177794963#0_0" pos="-5" file="NUL" friendlyPos="True"/>
<inductionLoop id="-177794965#0_det" lane="-177794965#0_0" pos="-5" file="NUL" friendlyPos="True"/>
<inductionLoop id="-177794965#1_det" lane="-177794965#1_0" pos="-5" file="NUL" friendlyPos="True"/>
<inductionLoop id="-177794965#2_det" lane="-177794965#2_0" pos="-5" file="NUL" friendlyPos="True"/>
<inductionLoop id="-177794965#3_det" lane="-177794965#3_0" pos="-5" file="NUL" friendlyPos="True"/>
<inductionLoop id="-177794965#4_det" lane="-177794965#4_0" pos="-5" file="NUL" friendlyPos="True"/>
<inductionLoop id="-177794965#5_det" lane="-177794965#5_0" pos="-5" file="NUL" friendlyPos="True"/>
<inductionLoop id="-177794966_det" lane="-177794966_0" pos="-5" file="NUL" friendlyPos="True"/>
<inductionLoop id="-177794967#0_det" lane="-177794967#0_0" pos="-5" file="NUL" friendlyPos="True"/>
<inductionLoop id="-177794967#4_det" lane="-177794967#4_0" pos="-5" file="NUL" friendlyPos="True"/>
<inductionLoop id="-177794969_det" lane="-177794969_0" pos="-5" file="NUL" friendlyPos="True"/>
<inductionLoop id="-177794970_det" lane="-177794970_0" pos="-5" file="NUL" friendlyPos="True"/>
<inductionLoop id="-177794971#0_det" lane="-177794971#0_0" pos="-5" file="NUL" friendlyPos="True"/>
<inductionLoop id="-177794971#1_det" lane="-177794971#1_0" pos="-5" file="NUL" friendlyPos="True"/>
<inductionLoop id="-177803854#0_det" lane="-177803854#0_0" pos="-5" file="NUL" friendlyPos="True"/>
<inductionLoop id="-177803854#1_det" lane="-177803854#1_0" pos="-5" file="NUL" friendlyPos="True"/>
<inductionLoop id="-177803854#2_det" lane="-177803854#2_0" pos="-5" file="NUL" friendlyPos="True"/>
<inductionLoop id="-177803854#3_det" lane="-177803854#3_0" pos="-5" file="NUL" friendlyPos="True"/>
<inductionLoop id="-177803854#4_det" lane="-177803854#4_0" pos="-5" file="NUL" friendlyPos="True"/>
<inductionLoop id="-177803855_det" lane="-177803855_0" pos="-5" file="NUL" friendlyPos="True"/>