<routes>
<vType id="Human" color="red" guiShape="passenger/sedan"/>
<vType id="AV" color="yellow"/>
<route id="0_0_0" edges="
-177794961#0 -177790389#1 177790387#0 177790387#1 -657072317#0 177794940#0 177794940#1 177794940#2 177794940#3 177794940#4 -177794965#5 -177794965#4 -177794965#3
" />
<route id="0_0_1" edges="
-177794961#0 -177790389#1 177790387#0 177790387#1 -657072317#0 -657072315 657072313#1 177794940#0 177794940#1 177794940#2 177794940#3 177794940#4 -177794965#5 -177794965#4 -177794965#3
" />
<route id="0_0_2" edges="
-177794961#0 -177790389#1 177790387#0 177790387#1 657072317#1 -657072319#0 -657072317#0 177794940#0 177794940#1 177794940#2 177794940#3 177794940#4 -177794965#5 -177794965#4 -177794965#3
" />
<route id="0_0_3" edges="
-177794961#0 -177790389#1 177790387#0 177790387#1 -657072317#0 177794940#0 177794940#1 387116691#0 -387116691#0 177794940#2 177794940#3 177794940#4 -177794965#5 -177794965#4 -177794965#3
" />
<route id="0_157_0" edges="
-177794961#0 177794961#0 177794952#0 177794952#1 177794952#2 177794952#3 177794952#4 177794952#5 -177790381#1 -177790381#0 -177790392#1 -177790392#0 1160463770#0 -51822257#3 -51822257#2 -51822257#1 -51822257#0 -281725041 281725040 82893179#3 24941080 82893183 605930022#0 605930022#1 -51826894#3 -51826894#2 -51826894#1 -51826894#0 -51822256#0 -934638251 -934638254 -23230000#2
" />
<route id="0_157_1" edges="
-177794961#0 -177790389#1 -177790389#0 177790383#0 177790383#1 177790383#2 177790380#0 177790380#1 177790380#2 177790380#3 -177790392#1 -177790392#0 1160463770#0 -51822257#3 -51822257#2 -51822257#1 -51822257#0 -281725041 281725040 82893179#3 24941080 82893183 605930022#0 605930022#1 -51826894#3 -51826894#2 -51826894#1 -51826894#0 -51822256#0 -934638251 -934638254 -23230000#2
" />
<route id="0_157_2" edges="
-177794961#0 -177790389#1 -177790389#0 177790383#0 177790383#1 177790383#2 177790383#3 177790383#4 177790383#5 287673424#2 458640432#0 458640432#1 458640432#2 1160463770#0 -51822257#3 -51822257#2 -51822257#1 -51822257#0 -281725041 281725040 82893179#3 24941080 82893183 605930022#0 605930022#1 -51826894#3 -51826894#2 -51826894#1 -51826894#0 -51822256#0 -934638251 -934638254 -23230000#2
" />
<route id="0_157_3" edges="
-177794961#0 -177790389#1 -177790389#0 177790383#0 177790383#1 177790383#2 177790380#0 177790380#1 177790380#2 177790380#3 -177790392#1 -177790392#0 1160463770#0 -51822257#3 -51822257#2 -51822257#1 -51822257#0 -281725041 281725040 82893179#3 24941080 82893183 605930022#0 -605930022#0 -1130961588 24941112 82893179#5 282069316 -46968446#1 -46968446#0 -1265060065 -1265060066 23230002#0 23230002#1 23229997#3 23230000#0 23230000#1 23230000#2 934638254 934638251 -934638251 -934638254 -23230000#2
" />
<route id="1_1_0" edges="
-177794957#0 177794961#7 -254331069#13 -254331069#12 -254331069#11 -177790381#9 -177790381#8 -177790381#7 -177790381#6 -177790381#5 -177790381#4 -177790381#3 -177790381#2 -177790381#1 -177790381#0 -177790392#1 -177790392#0 1160463770#0 -51822257#3 -51822257#2 -51822257#1 -51822257#0 -281725041 281725040 82893179#3 24941080 82893183 605930022#0 605930022#1 605930021#0 605930021#1 605930021#2 449836592#0 449836592#1 449836593 650619931#0 650619931#1 24941098#0 24941098#1 24941077#7 1239834273 -458640440#12 -458640440#11 -458640440#10 -458640440#9 -458640440#8 -458640440#7 -458640440#6 -458640440#5 -458640440#4 -458640440#3
" />
<route id="1_1_1" edges="
-177794957#0 177794957#0 177794957#1 177794957#2 177794957#3 319899426#1 319899426#2 319899426#3 -177790381#6 -177790381#5 -177790381#4 -177790381#3 -177790381#2 -177790381#1 -177790381#0 -177790392#1 -177790392#0 1160463770#0 -51822257#3 -51822257#2 -51822257#1 -51822257#0 -281725041 281725040 82893179#3 24941080 82893183 605930022#0 605930022#1 605930021#0 605930021#1 605930021#2 449836592#0 449836592#1 449836593 650619931#0 650619931#1 24941098#0 24941098#1 24941077#7 1239834273 -458640440#12 -458640440#11 -458640440#10 -458640440#9 -458640440#8 -458640440#7 -458640440#6 -458640440#5 -458640440#4 -458640440#3
" />
<route id="1_1_2" edges="
-177794957#0 -177794961#6 -177794961#5 -177794961#4 177794955#0 177794955#1 177794955#2 177794955#3 -177794947#2 -177794947#1 -177794947#0 -177790381#3 -177790381#2 -177790381#1 -177790381#0 -177790392#1 -177790392#0 1160463770#0 -51822257#3 -51822257#2 -51822257#1 -51822257#0 -281725041 281725040 82893179#3 24941080 82893183 605930022#0 605930022#1 605930021#0 605930021#1 605930021#2 449836592#0 449836592#1 449836593 650619931#0 650619931#1 24941098#0 24941098#1 24941077#7 1239834273 -458640440#12 -458640440#11 -458640440#10 -458640440#9 -458640440#8 -458640440#7 -458640440#6 -458640440#5 -458640440#4 -458640440#3
" />
<route id="1_1_3" edges="
-177794957#0 -177794961#6 -177794961#5 -177794961#4 -177794961#3 -177794961#2 -177794961#1 177794952#0 177794952#1 177794952#2 177794952#3 177794952#4 177794952#5 -177790381#1 -177790381#0 -177790392#1 -177790392#0 1160463770#0 -51822257#3 -51822257#2 -51822257#1 -51822257#0 -281725041 281725040 82893179#3 24941080 82893183 605930022#0 605930022#1 605930021#0 605930021#1 605930021#2 449836592#0 449836592#1 449836593 650619931#0 650619931#1 24941098#0 24941098#1 24941077#7 1239834273 -458640440#12 -458640440#11 -458640440#10 -458640440#9 -458640440#8 -458640440#7 -458640440#6 -458640440#5 -458640440#4 -458640440#3
" />
<route id="2_2_0" edges="
-177794942#1 -177794962#0 -177794961#7 -177794961#6 -177794961#5 -177794961#4 -177794961#3 -177794961#2 -177794961#1 -177794961#0 -177790389#1 177790387#0 319353041#0 319353042
" />
<route id="2_2_1" edges="
-177794942#1 -177794962#0 -177794961#7 -177794961#6 -177794961#5 -177794961#4 -177794961#3 319353035 -319353035 -177794961#2 -177794961#1 -177794961#0 -177790389#1 177790387#0 319353041#0 319353042
" />
<route id="2_2_2" edges="
-177794942#1 177794962#1 -177794962#1 -177794962#0 -177794961#7 -177794961#6 -177794961#5 -177794961#4 -177794961#3 -177794961#2 -177794961#1 -177794961#0 -177790389#1 177790387#0 319353041#0 319353042
" />
<route id="2_2_3" edges="
-177794942#1 -177794962#0 -177794961#7 177794957#0 -177794957#0 -177794961#6 -177794961#5 -177794961#4 -177794961#3 -177794961#2 -177794961#1 -177794961#0 -177790389#1 177790387#0 319353041#0 319353042
" />
<route id="3_3_0" edges="
-351928965 -875769252 -287676269#0 -140901839#1 -140901839#0 142613417#3 142613417#4 142613417#5 142613417#1 168323306#0 168323306#1 737031026#3 -168323334#2 -168323334#1 -168323334#0 -836747626 -740812193
" />
<route id="3_3_1" edges="
-351928965 -875769252 -287676269#0 -140901839#1 -140901839#0 142613417#3 142613417#4 142613417#5 142613417#1 168323306#0 168323306#1 737031026#3 -168323334#2 -168323334#1 168323337#4 -168323340#0 -836747626 -740812193
" />
<route id="3_3_2" edges="
-351928965 -875769252 -287676269#0 -140901839#1 -140901839#0 142613417#3 142613417#4 -168323286#2 168323286#2 142613417#5 142613417#1 168323306#0 168323306#1 737031026#3 -168323334#2 -168323334#1 -168323334#0 -836747626 -740812193
" />
<route id="3_3_3" edges="
-351928965 -875769252 -287676269#0 -140901839#1 -140901839#0 142613417#3 142613417#4 142613417#5 142613417#1 168323306#0 168323306#1 737031026#3 -168323334#2 -168323334#1 -168323334#0 168323334#0 168323337#4 -168323340#0 -836747626 -740812193
" />
<route id="3_59_0" edges="
-351928965 -875769252 287676269#1 287676269#2 287676268#0 287676268#1 129506930#0 129506930#1 129506930#2 1352137435 352314133#0 352314133#1 352314133#2 352314133#3 352314133#4 116949259 133881922#0 133881922#1 458521668#0 458521668#1 28337684 204285680 43558114 204285677#1 28337699#0 28337699#1 28337699#2 204285925 287672889 51823986 -210711939 116829596#0 116829596#1 116829596#2 204285701#7 478269930#0 210711951 210711952#0 478269925 142646940 142646939#1 51884830#0 51884830#1 478269915#3 478269915#4 478269921#0 478269921#1 478269921#2 51884822#0 478269905#0 478269905#1 919651732#0 919651732#1 478269935#0 478269935#1 -51822252#12 -51822252#11 -51822252#10 -51822252#9 -51822252#8 -51822252#7 -51822252#6 -288304053
" />
<route id="3_59_1" edges="
-351928965 -875769252 -287676269#0 -140901839#1 -140901839#0 142613417#3 142613417#4 -168323286#2 -168323286#1 -168323286#0 1104523975 23228232#1 23228232#2 1104526781#1 287673423#0 287673423#1 116949259 133881922#0 133881922#1 458521668#0 458521668#1 28337684 204285680 43558114 204285677#1 28337699#0 28337699#1 28337699#2 204285925 287672889 51823986 -210711939 116829596#0 116829596#1 116829596#2 204285701#7 478269930#0 210711951 210711952#0 478269925 142646940 142646939#1 51884830#0 51884830#1 478269915#3 478269915#4 478269921#0 478269921#1 478269921#2 51884822#0 478269905#0 478269905#1 919651732#0 919651732#1 478269935#0 478269935#1 -51822252#12 -51822252#11 -51822252#10 -51822252#9 -51822252#8 -51822252#7 -51822252#6 -288304053
" />
<route id="3_59_2" edges="
-351928965 -875769252 287676269#1 287676269#2 287676268#0 287676268#1 129506930#0 129506930#1 129506930#2 1352137435 352314133#0 352314133#1 352314133#2 352314133#3 352314133#4 116949259 133881922#0 133881922#1 458521668#0 458521668#1 28337684 204285680 43558114 204285677#1 28337699#0 28337699#1 28337699#2 204285925 287672889 51823986 -210711939 116829596#0 116829596#1 116829596#2 204285701#7 478269930#0 210711951 210711952#0 478269925 142646940 142646939#1 51884830#0 51884830#1 478269915#3 478269915#4 478269921#0 478269921#1 478269921#2 51884822#0 478269905#0 478269905#1 319503432#0 319503435 919651732#1 478269935#0 478269935#1 -51822252#12 -51822252#11 -51822252#10 -51822252#9 -51822252#8 -51822252#7 -51822252#6 -288304053
" />
<route id="3_59_3" edges="
-351928965 -875769252 287676269#1 287676269#2 287676268#0 287676268#1 129506930#0 129506930#1 129506930#2 1352137435 352314133#0 352314133#1 352314133#2 352314133#3 352314133#4 116949259 133881922#0 133881922#1 458521668#0 458521668#1 28337684 204285680 43558114 204285677#1 387141248 177011149 28337699#1 28337699#2 204285925 287672889 51823986 -210711939 116829596#0 116829596#1 116829596#2 204285701#7 478269930#0 210711951 210711952#0 478269925 142646940 142646939#1 51884830#0 51884830#1 478269915#3 478269915#4 478269921#0 478269921#1 478269921#2 51884822#0 478269905#0 478269905#1 919651732#0 919651732#1 478269935#0 478269935#1 -51822252#12 -51822252#11 -51822252#10 -51822252#9 -51822252#8 -51822252#7 -51822252#6 -288304053
" />
<route id="3_85_0" edges="
-351928965 -875769252 -287676269#0 -140901839#1 -140901839#0 142613417#3 142613417#4 -168323286#2 -168323286#1 -168323286#0 -1104523974 -752728929#0 -752728930#0 82896676#0 82896676#2 82896676#3 82896676#4 22662902#0 1078856753 292462414 732735185#0 -22662905#1 -116829593 -51863144#0 341237300 51875972 -387116668 -387116693#1 -341235339#2 341235339#2
" />
<route id="3_85_1" edges="
-351928965 -875769252 -287676269#0 -140901839#1 -140901839#0 142613417#3 142613417#4 -168323286#2 -168323286#1 -168323286#0 -1104523974 -752728929#0 -752728930#0 82896676#0 82896676#2 82896676#3 82896676#4 22662902#0 1078856753 292462414 732735185#0 -22662905#1 -116829593 -51863144#0 341237300 -453731337 453731337 51875972 -387116668 -387116693#1 -341235339#2 341235339#2
" />
<route id="3_85_2" edges="
-351928965 -875769252 -287676269#0 -140901839#1 -140901839#0 142613417#3 142613417#4 -168323286#2 -168323286#1 -168323286#0 -1104523974 -752728929#0 -752728930#0 82896676#0 82896676#2 82896676#3 82896676#4 22662902#0 1078856753 292462414 732735185#0 -22662905#1 -116829593 -51863144#0 -51875974#4 -51875974#3 -51875973#1 -51875973#0 -387116668 -387116693#1 -341235339#2 341235339#2
" />
<route id="3_85_3" edges="
-351928965 -875769252 -287676269#0 -140901839#1 -140901839#0 142613417#3 142613417#4 -168323286#2 -168323286#1 -168323286#0 -1104523974 -752728929#0 -752728930#0 82896676#0 82896676#2 82896676#3 82896676#4 22662902#0 1078856753 292462414 732735185#0 -22662905#1 -116829593 -51863144#0 341237300 51875972 1130961584 -1130961584 -387116668 -387116693#1 -341235339#2 341235339#2
" />
<route id="3_97_0" edges="
-351928965 -875769252 -287676269#0 -140901839#1 -140901839#0 142613417#3 142613417#4 142613417#5 142613417#1 168323306#0 168323306#1 737031026#3 -168323334#2 -168323334#1 -168323337#3 -168323337#2 168323337#2
" />
<route id="3_97_1" edges="
-351928965 -875769252 -287676269#0 -140901839#1 -140901839#0 142613417#3 142613417#4 142613417#5 142613417#1 168323306#0 168323306#1 737031026#3 -168323334#2 -168323334#1 168323337#4 -168323337#4 -168323337#3 -168323337#2 168323337#2
" />
<route id="3_97_2" edges="
-351928965 -875769252 -287676269#0 -140901839#1 -140901839#0 142613417#3 142613417#4 -168323286#2 168323286#2 142613417#5 142613417#1 168323306#0 168323306#1 737031026#3 -168323334#2 -168323334#1 -168323337#3 -168323337#2 168323337#2
" />
<route id="3_97_3" edges="
-351928965 -875769252 -287676269#0 -140901839#1 -140901839#0 142613417#3 142613417#4 142613417#5 168323316 -168323316 142613417#1 168323306#0 168323306#1 737031026#3 -168323334#2 -168323334#1 -168323337#3 -168323337#2 168323337#2
" />
<route id="4_4_0" edges="
-206262328 50950446#0 50950446#1 50950446#2 50950446#3 211897511#0 211897511#1 211897511#2 -23327586#7 -23327586#6 -23327586#5 -23327586#4 -23327586#3 -23327586#2 -23327586#1 -23327586#0 -352314133#4 -352314133#3 -352314133#2 -352314133#1 981913292 -129506930#2 -129506930#1 -129506930#0 -740812194#4 -740812194#3 -740812194#2 -740812194#1 -740812194#0 -129506909#2 -129506909#1 -129506909#0
" />
<route id="4_4_1" edges="
-206262328 206262339#0 206262335 -206262327#0 50950446#2 50950446#3 211897511#0 211897511#1 211897511#2 -23327586#7 -23327586#6 -23327586#5 -23327586#4 -23327586#3 -23327586#2 -23327586#1 -23327586#0 -352314133#4 -352314133#3 -352314133#2 -352314133#1 981913292 -129506930#2 -129506930#1 -129506930#0 -740812194#4 -740812194#3 -740812194#2 -740812194#1 -740812194#0 -129506909#2 -129506909#1 -129506909#0
" />
<route id="4_4_2" edges="
-206262328 50950446#0 50950446#1 206262327#0 -206262327#0 50950446#2 50950446#3 211897511#0 211897511#1 211897511#2 -23327586#7 -23327586#6 -23327586#5 -23327586#4 -23327586#3 -23327586#2 -23327586#1 -23327586#0 -352314133#4 -352314133#3 -352314133#2 -352314133#1 981913292 -129506930#2 -129506930#1 -129506930#0 -740812194#4 -740812194#3 -740812194#2 -740812194#1 -740812194#0 -129506909#2 -129506909#1 -129506909#0
" />
<route id="4_4_3" edges="
-206262328 50950446#0 50950446#1 -50950446#1 206262329#0 -206262329#0 -50950446#0 206262339#0 206262335 -206262327#0 50950446#2 50950446#3 211897511#0 211897511#1 211897511#2 -23327586#7 -23327586#6 -23327586#5 -23327586#4 -23327586#3 -23327586#2 -23327586#1 -23327586#0 -352314133#4 -352314133#3 -352314133#2 -352314133#1 981913292 -129506930#2 -129506930#1 -129506930#0 -740812194#4 -740812194#3 -740812194#2 -740812194#1 -740812194#0 -129506909#2 -129506909#1 -129506909#0
" />
<route id="4_30_0" edges="
-206262328 50950446#0 50950446#1 50950446#2 50950446#3 50950446#4 50950446#5 50950446#6 743239547 -751443590 -666960584#2 -666960584#1 -666960584#0 570605248 23228237#0 23228237#1 23228237#2 377222006-AddedOnRampEdge 377222006 43558114 204285677#1 28337699#0 28337699#1 28337699#2 204285925 287672889 51823986 -210711939 116829596#0 116829596#1 116829596#2 204285701#7 478269930#0 210711951 210711952#0 478269925 142646940 142646939#1 51884830#0 51884830#1 478269915#3 478269915#4 478269921#0 478269921#1 478269921#2 -287675230#2 -287675230#0 -183842111#1 -183842111#0 287673426
" />
<route id="4_30_1" edges="
-206262328 50950446#0 50950446#1 50950446#2 50950446#3 50950446#4 50950446#5 50950446#6 743239547 -751443590 -666960584#2 -666960584#1 -666960584#0 570605248 23228237#0 23228237#1 23228237#2 377222006-AddedOnRampEdge 377222006 43558114 204285677#1 387141248 177011149 28337699#1 28337699#2 204285925 287672889 51823986 -210711939 116829596#0 116829596#1 116829596#2 204285701#7 478269930#0 210711951 210711952#0 478269925 142646940 142646939#1 287673424#0 287673424#1 287673424#2 458640432#0 458640432#1 458640432#2 1160463770#0 -51822257#3 -51822257#2 183842107#0 183842107#1 -183842111#0 287673426
" />
<route id="4_30_2" edges="
-206262328 50950446#0 50950446#1 50950446#2 50950446#3 50950446#4 50950446#5 50950446#6 743239547 -751443590 -666960584#2 -666960584#1 -666960584#0 570605248 23228237#0 23228237#1 23228237#2 377222006-AddedOnRampEdge 377222006 43558114 204285677#1 28337699#0 28337699#1 28337699#2 204285925 287672889 51823986 -210711939 116829596#0 116829596#1 116829596#2 204285701#7 478269930#0 210711951 210711952#0 478269925 142646940 142646939#1 287673424#0 287673424#1 287673424#2 458640432#0 458640432#1 458640432#2 1160463770#0 -51822257#3 -51822257#2 183842107#0 183842107#1 -183842111#0 287673426
" />
<route id="4_30_3" edges="
-206262328 50950446#0 50950446#1 50950446#2 50950446#3 50950446#4 50950446#5 50950446#6 743239547 -751443590 -666960584#2 -666960584#1 -666960584#0 570605248 23228237#0 23228237#1 23228237#2 377222006-AddedOnRampEdge 377222006 43558114 204285677#1 387141248 177011149 28337699#1 28337699#2 204285925 287672889 51823986 -210711939 116829596#0 116829596#1 116829596#2 204285701#7 478269930#0 210711951 210711952#0 478269925 142646940 142646939#1 51884830#0 51884830#1 478269915#3 478269915#4 478269921#0 478269921#1 478269921#2 -287675230#2 -287675230#0 -183842111#1 -183842111#0 287673426
" />
<route id="4_38_0" edges="
-206262328 50950446#0 50950446#1 50950446#2 50950446#3 50950446#4 50950446#5 50950446#6 743239547 -751443590 -666960584#2 -666960584#1 -666960584#0 570605248 23228237#0
" />
<route id="4_38_1" edges="
-206262328 206262339#0 206262335 -206262327#0 50950446#2 50950446#3 50950446#4 50950446#5 50950446#6 743239547 -751443590 -666960584#2 -666960584#1 -666960584#0 570605248 23228237#0
" />
<route id="4_38_2" edges="
-206262328 50950446#0 50950446#1 -50950446#1 206262329#0 -206262329#0 -50950446#0 -50950447#1 50950447#1 206262339#0 206262335 -206262327#0 50950446#2 50950446#3 50950446#4 50950446#5 50950446#6 743239547 -751443590 -666960584#2 -666960584#1 -666960584#0 570605248 23228237#0
" />
<route id="4_38_3" edges="
-206262328 50950446#0 206262329#0 -206262329#0 50950446#1 50950446#2 50950446#3 50950446#4 50950446#5 50950446#6 743239547 -751443590 -666960584#2 -666960584#1 -666960584#0 570605248 23228237#0
" />
<route id="4_111_0" edges="
-206262328 50950446#0 50950446#1 50950446#2 50950446#3 50950446#4 50950446#5 50950446#6 743239547 -751443590 -666960584#2 -666960584#1 -666960584#0 570605248 23228237#0 23228237#1 23228237#2 377222006-AddedOnRampEdge 377222006 43558114 204285677#1 28337699#0 28337699#1 28337699#2 204285925 287672889 51823986 -210711939 116829596#0 116829596#1 116829596#2 204285701#7 478269930#0 210711951 210711952#0 478269925 142646940 142646939#1 51884830#0 51884830#1 478269915#3 478269915#4 478269921#0 478269921#1 478269921#2 51884822#0 478269905#0 478269905#1 319503432#0 -319503432#0
" />
<route id="4_111_1" edges="
-206262328 50950446#0 50950446#1 50950446#2 50950446#3 50950446#4 50950446#5 50950446#6 743239547 -751443590 -666960584#2 -666960584#1 -666960584#0 570605248 23228237#0 23228237#1 23228237#2 377222006-AddedOnRampEdge 377222006 43558114 204285677#1 28337699#0 28337699#1 28337699#2 204285925 287672889 51823986 -210711939 116829596#0 116829596#1 116829596#2 204285701#7 478269930#0 210711951 210711952#0 478269925 142646940 142646939#1 51884830#0 51884830#1 478269915#3 478269915#4 478269921#0 478269921#1 478269921#2 51884822#0 478269905#0 478269905#1 919651732#0 -319503435 -319503432#0
" />
<route id="4_111_2" edges="
-206262328 206262339#0 206262335 -206262327#0 50950446#2 50950446#3 50950446#4 50950446#5 50950446#6 743239547 -751443590 -666960584#2 -666960584#1 -666960584#0 570605248 23228237#0 23228237#1 23228237#2 377222006-AddedOnRampEdge 377222006 43558114 204285677#1 28337699#0 28337699#1 28337699#2 204285925 287672889 51823986 -210711939 116829596#0 116829596#1 116829596#2 204285701#7 478269930#0 210711951 210711952#0 478269925 142646940 142646939#1 51884830#0 51884830#1 478269915#3 478269915#4 478269921#0 478269921#1 478269921#2 51884822#0 478269905#0 478269905#1 319503432#0 -319503432#0
" />
<route id="4_111_3" edges="
-206262328 50950446#0 50950446#1 50950446#2 50950446#3 50950446#4 50950446#5 50950446#6 743239547 -751443590 -666960584#2 -666960584#1 -666960584#0 570605248 23228237#0 23228237#1 23228237#2 377222006-AddedOnRampEdge 377222006 43558114 204285677#1 387141248 177011149 28337699#1 28337699#2 204285925 287672889 51823986 -210711939 116829596#0 116829596#1 116829596#2 204285701#7 478269930#0 210711951 210711952#0 478269925 142646940 142646939#1 51884830#0 51884830#1 478269915#3 478269915#4 478269921#0 478269921#1 478269921#2 51884822#0 478269905#0 478269905#1 319503432#0 -319503432#0
" />
<route id="4_163_0" edges="
-206262328 50950446#0 50950446#1 50950446#2 50950446#3 50950446#4 50950446#5 50950446#6 743239547 -751443590 -666960584#2 -666960584#1 -666960584#0 570605248 23228237#0 23228237#1 23228237#2 377222006-AddedOnRampEdge 377222006 43558114 204285677#1 387141248 355751067 183842091 916430136 183842062#0 183842062#1 -183842115#1 -183842115#0 34748926#6 34748926#7 -116829593 -51863144#0 341237300 -453731337 204285839 204285859 -51863142#0 23228780#3 23228781 43709750#0 43709750#1 563931977 23228782#2 177794944 177790376#0 177790376#1 177790376#2 177790376#3 177790376#4 657072310 -657072309#0 -177790376#4
" />
<route id="4_163_1" edges="
-206262328 50950446#0 50950446#1 50950446#2 50950446#3 50950446#4 50950446#5 50950446#6 743239547 -751443590 -666960584#2 -666960584#1 -666960584#0 570605248 23228237#0 23228237#1 23228237#2 377222006-AddedOnRampEdge 377222006 43558114 204285677#1 387141248 355751067 183842091 916430136 183842062#0 183842062#1 741317313 -197639443#0 -387141250 34748926#7 -116829593 51863144#1 51863144#2 281447830 204285839 204285859 -51863142#0 23228780#3 23228781 43709750#0 43709750#1 563931977 23228782#2 177794944 177790376#0 177790376#1 177790376#2 177790376#3 177790376#4 657072310 -657072309#0 -177790376#4
" />
<route id="4_163_2" edges="
-206262328 50950446#0 50950446#1 50950446#2 50950446#3 50950446#4 50950446#5 50950446#6 743239547 -751443590 -666960584#2 -666960584#1 -666960584#0 570605248 23228237#0 23228237#1 23228237#2 377222006-AddedOnRampEdge 377222006 43558114 204285677#1 387141248 355751067 183842091 916430136 183842062#0 183842062#1 -183842115#1 -183842115#0 34748926#6 34748926#7 -116829593 -51863144#0 341237300 -699256794#1 -699256794#0 -51863142#1 -51863142#0 23228780#3 23228781 43709750#0 43709750#1 563931977 23228782#2 177794944 177790376#0 177790376#1 177790376#2 177790376#3 177790376#4 657072310 -657072309#0 -177790376#4
" />
<route id="4_163_3" edges="
-206262328 50950446#0 50950446#1 50950446#2 50950446#3 50950446#4 50950446#5 50950446#6 743239547 -751443590 -666960584#2 -666960584#1 -666960584#0 570605248 23228237#0 23228237#1 23228237#2 377222006-AddedOnRampEdge 377222006 43558114 204285677#1 387141248 355751067 183842091 916430136 183842062#0 183842062#1 -183842115#1 -183842115#0 34748926#6 34748926#7 -116829593 51863144#1 51863144#2 281447830 204285839 204285859 -51863142#0 23228780#3 23228781 43709750#0 43709750#1 563931977 23228782#2 177794944 177790376#0 177790376#1 177790376#2 177790376#3 177790376#4 657072310 -657072309#0 -177790376#4
" />
<route id="4_190_0" edges="
-206262328 50950446#0 50950446#1 50950446#2 50950446#3 50950446#4 50950446#5 50950446#6 743239547 -751443590 -666960584#2 -666960584#1 -666960584#0 570605248 23228237#0 23228237#1 23228237#2 377222006-AddedOnRampEdge 377222006 43558114 204285677#1 28337699#0 28337699#1 28337699#2 204285925 287672889 51823986 -210711939 116829596#0 116829596#1 116829596#2 204285701#7 478269930#0 210711951 210711952#0 478269925 142646940 142646939#1 287673424#0 287673424#1 287673424#2 458640432#0 458640432#1 458640432#2 177790392#0 177790392#1 177790381#0 177790381#1 177790381#2 177790381#3 177790381#4 177790381#5 177790381#6 -319899426#3 -319899426#2 -319899426#1
" />
<route id="4_190_1" edges="
-206262328 50950446#0 50950446#1 50950446#2 50950446#3 50950446#4 50950446#5 50950446#6 743239547 -751443590 -666960584#2 -666960584#1 -666960584#0 570605248 23228237#0 23228237#1 23228237#2 377222006-AddedOnRampEdge 377222006 43558114 204285677#1 387141248 1104523980 210711942#1 458521669#0 458521669#1 458521669#2 116829588 142613412#1 142613412#2 142613412#3 142613412#4 116829596#2 204285701#7 478269930#0 210711951 210711952#0 478269925 142646940 142646939#1 287673424#0 287673424#1 287673424#2 458640432#0 458640432#1 458640432#2 177790392#0 177790392#1 177790381#0 177790381#1 177790381#2 177790381#3 177790381#4 177790381#5 177790381#6 -319899426#3 -319899426#2 -319899426#1
" />
<route id="4_190_2" edges="
-206262328 50950446#0 50950446#1 50950446#2 50950446#3 50950446#4 50950446#5 50950446#6 743239547 -751443590 -666960584#2 -666960584#1 -666960584#0 570605248 23228237#0 23228237#1 23228237#2 377222006-AddedOnRampEdge 377222006 43558114 204285677#1 387141248 177011149 28337699#1 28337699#2 204285925 287672889 51823986 -210711939 116829596#0 116829596#1 116829596#2 204285701#7 478269930#0 210711951 210711952#0 478269925 142646940 142646939#1 287673424#0 287673424#1 287673424#2 458640432#0 458640432#1 458640432#2 177790392#0 177790392#1 177790381#0 177790381#1 177790381#2 177790381#3 177790381#4 177790381#5 177790381#6 -319899426#3 -319899426#2 -319899426#1
" />
<route id="4_190_3" edges="
-206262328 206262339#0 206262335 -206262327#0 50950446#2 50950446#3 50950446#4 50950446#5 50950446#6 743239547 -751443590 -666960584#2 -666960584#1 -666960584#0 570605248 23228237#0 23228237#1 23228237#2 377222006-AddedOnRampEdge 377222006 43558114 204285677#1 28337699#0 28337699#1 28337699#2 204285925 287672889 51823986 -210711939 116829596#0 116829596#1 116829596#2 204285701#7 478269930#0 210711951 210711952#0 478269925 142646940 142646939#1 287673424#0 287673424#1 287673424#2 458640432#0 458640432#1 458640432#2 177790392#0 177790392#1 177790381#0 177790381#1 177790381#2 177790381#3 177790381#4 177790381#5 177790381#6 -319899426#3 -319899426#2 -319899426#1
" />
<route id="5_5_0" edges="
183842107#2 287675230#1 -478269921#4 -478269921#1 -478269921#0 -478269915#4 177790384 -287673424#0 -142646939#1 -142646939#0 -478269925 -210711952#2 152337215 210711955 -210711930 -252059788#2 116829603#0 51884832#1 51884831#1 365170341#0 365170341#1 365170341#2 252040451 576406260 210711950 281447830 204285839 204285859 -204285859
" />
<route id="5_5_1" edges="
183842107#2 287675230#1 -478269921#4 -478269921#1 -478269921#0 -478269915#4 177790384 -287673424#0 -142646939#1 -142646939#0 -478269925 -210711952#2 152337215 210711955 210711929#0 210711929#1 51884831#0 51884831#1 365170341#0 365170341#1 365170341#2 252040451 576406260 210711950 281447830 204285839 204285859 -204285859
" />
<route id="5_5_2" edges="
183842107#2 287675230#1 -478269921#4 -478269921#1 -478269921#0 -478269915#4 -478269915#3 -478269915#2 -51884830#0 -142646939#1 -142646939#0 -478269925 -210711952#2 152337215 210711955 210711929#0 210711929#1 51884831#0 51884831#1 365170341#0 365170341#1 365170341#2 252040451 576406260 210711950 281447830 204285839 204285859 -204285859
" />
<route id="5_5_3" edges="
183842107#2 287675230#1 -478269921#4 -478269921#1 -478269921#0 -478269915#4 177790384 -287673424#0 -142646939#1 -142646939#0 -478269925 -210711952#2 -210711951 210711951 152337215 210711955 210711929#0 210711929#1 51884831#0 51884831#1 365170341#0 365170341#1 365170341#2 252040451 576406260 210711950 281447830 204285839 204285859 -204285859
" />
<route id="5_296_0" edges="
183842107#2 287675230#1 51884822#0 478269905#0 478269905#1 919651732#0 919651732#1 478269935#0 478269935#1 -51822252#12 -51822252#11 -51822252#10 -51822252#9 -51822252#8 -51822252#7 -51822252#6 -51822252#5 -51822252#4 -51822252#3
" />
<route id="5_296_1" edges="
183842107#2 287675230#1 51884822#0 478269905#0 478269905#1 319503432#0 319503435 919651732#1 478269935#0 478269935#1 -51822252#12 -51822252#11 -51822252#10 -51822252#9 -51822252#8 -51822252#7 -51822252#6 -51822252#5 -51822252#4 -51822252#3
" />
<route id="5_296_2" edges="
183842107#2 287675230#1 51884822#0 478269905#0 478269905#1 919651732#0 919651732#1 478269935#0 478269935#1 -51822252#12 288304057 -288304057 -51822252#11 -51822252#10 -51822252#9 -51822252#8 -51822252#7 -51822252#6 -51822252#5 -51822252#4 -51822252#3
" />
<route id="5_296_3" edges="
183842107#2 287675230#1 51884822#0 478269905#0 478269905#1 319503432#0 -319503432#0 919651732#0 919651732#1 478269935#0 478269935#1 -51822252#12 -51822252#11 -51822252#10 -51822252#9 -51822252#8 -51822252#7 -51822252#6 -51822252#5 -51822252#4 -51822252#3
" />
<route id="6_5_0" edges="
177790383#4 177790383#5 -287673424#1 -287673424#0 -142646939#1 -142646939#0 -478269925 -210711952#2 152337215 210711955 210711929#0 210711929#1 51884831#0 51884831#1 365170341#0 365170341#1 365170341#2 252040451 576406260 210711950 281447830 204285839 204285859 -204285859
" />
<route id="6_5_1" edges="
177790383#4 177790383#5 -287673424#1 -287673424#0 -142646939#1 -142646939#0 -478269925 -210711952#2 152337215 210711955 -210711930 -252059788#2 116829603#0 51884832#1 51884831#1 365170341#0 365170341#1 365170341#2 252040451 576406260 210711950 281447830 204285839 204285859 -204285859
" />
<route id="6_5_2" edges="
177790383#4 177790383#5 -287673424#1 -287673424#0 -142646939#1 -142646939#0 -478269925 -210711952#2 152337215 -116829586 116829586 210711955 210711929#0 210711929#1 51884831#0 51884831#1 365170341#0 365170341#1 365170341#2 252040451 576406260 210711950 281447830 204285839 204285859 -204285859
" />
<route id="6_5_3" edges="
177790383#4 177790383#5 -287673424#1 -287673424#0 -142646939#1 -142646939#0 -478269925 -210711952#2 152337215 210711955 210711929#0 210711929#1 51884831#0 51884831#1 365170341#0 365170341#1 365170341#2 252040451 576406260 210711950 281447830 204285839 341237287#1 -341237287#1 204285859 -204285859
" />
<route id="6_21_0" edges="