<routes>
<vType id="Human" color="red" guiShape="passenger/sedan"/>
<vType id="AV" color="yellow"/>
<route id="0_0_0" edges="
156460680#1 -156460680#1 1024000539#1 1024000539#2 156460679 37052277#1 37052277#2 37052277#3 37052277#4 1237352048 1119245070 319058612#0 319058612#1 36288941#0 36288941#1 36288941#2 36936373#0 36936373#1 36936373#2 36936373#3 36936373#4 201772610 157574535 -36933126#2 -36933126#1 -36933126#0 -1239117024 -394443151#2 196288048 -394443151#0 394443143#0 394443143#1 394443143#2 1238948418#0 1238948418#1 509025806#1 509025806#2 1338884372 1338884371#4 1338884371#5 1338884371#6 1338884371#7 1338884371#8 1338884377 243836884#0 243836884#1 243836884#2 243836884#3 243836884#4 243836884#5 -243836884#5
" />
<route id="0_0_1" edges="
156460680#1 -156460680#1 1024000539#1 1024000539#2 156460679 37052277#1 37052277#2 37052277#3 37052277#4 1237352048 1119245070 319058612#0 319058612#1 36288941#0 36288941#1 36288941#2 36936373#0 36936373#1 36936373#2 36936373#3 36936373#4 201772610 157574535 -36933126#2 -36933126#1 -36933126#0 -1239117024 -394443151#2 -394443151#1 -394443151#0 394443143#0 394443143#1 394443143#2 1238948418#0 1238948418#1 509025806#1 509025806#2 1338884372 1338884371#4 1338884371#5 1338884371#6 1338884371#7 1338884371#8 1338884377 243836884#0 243836884#1 243836884#2 243836884#3 243836884#4 243836884#5 -243836884#5
" />
<route id="0_0_2" edges="
156460680#1 -156460680#1 -156460680#0 -156460671 -37055902#2 -37055902#1 -37051625#2 -37051625#1 37052277#4 1237352048 1119245070 319058612#0 319058612#1 36288941#0 36288941#1 36288941#2 36936373#0 36936373#1 36936373#2 36936373#3 36936373#4 201772610 157574535 -36933126#2 -36933126#1 -36933126#0 -1239117024 -394443151#2 -394443151#1 -394443151#0 394443143#0 394443143#1 394443143#2 1238948418#0 1238948418#1 509025806#1 509025806#2 1338884372 1338884371#4 1338884371#5 1338884371#6 1338884371#7 1338884371#8 1338884377 243836884#0 243836884#1 243836884#2 243836884#3 243836884#4 243836884#5 -243836884#5
" />
<route id="0_0_3" edges="
156460680#1 -156460680#1 -156460680#0 -156460671 -37055902#2 -37055902#1 -37051625#2 -37051625#1 37052277#4 1237352048 1119245070 319058612#0 319058612#1 36288941#0 36288941#1 36288941#2 36936373#0 36936373#1 36936373#2 36936373#3 36936373#4 201772610 157574535 -36933126#2 -36933126#1 -36933126#0 -1239117024 -394443151#2 196288048 -394443151#0 394443143#0 394443143#1 394443143#2 1238948418#0 1238948418#1 509025806#1 509025806#2 1338884372 1338884371#4 1338884371#5 1338884371#6 1338884371#7 1338884371#8 1338884377 243836884#0 243836884#1 243836884#2 243836884#3 243836884#4 243836884#5 -243836884#5
" />
<route id="1_1_0" edges="
-165171783#1 -165171783#0 165171783#0 165171783#1 165171783#2 1371061454 319058613#0 319058613#1 319058613#2 165170673#0 165170673#1 165170673#2 1338884371#8 1338884371#0 1338884371#1 1338884371#2 1338884373 -509025806#2 -509025806#1 -509025806#0 -1238948418#0 509033674#0 509033674#1 394443151#0 394443151#1 394443151#2 153732964 -269702559 -36933151#0 36933113 39820664#9 36933223 36933282#0 36933282#1 -36288851#2 -36288851#1 -36288851#0 394446867#0 394446867#1 710476653#0 710476653#1 710476654 -36934835#1 -36934835#0 36936220 37051113#0 37051113#1 1119245072 37056055#1 319058606 37052930
" />
<route id="1_1_1" edges="
-165171783#1 -165171783#0 165171783#0 165171783#1 165171783#2 1371061454 319058613#0 319058613#1 319058613#2 165170673#0 165170673#1 165170673#2 1338884371#8 1338884371#0 1338884371#1 1338884371#2 1338884373 -509025806#2 -509025806#1 -509025806#0 -1238948418#0 509033674#0 509033674#1 394443151#0 394443151#1 394443151#2 153732964 -269702559 -36933151#0 36933113 39820664#9 36933223 36933282#0 36933282#1 -36288851#2 36284386#0 36284386#1 36933240 394446867#1 710476653#0 710476653#1 710476654 -36934835#1 -36934835#0 36936220 37051113#0 37051113#1 1119245072 37056055#1 319058606 37052930
" />
<route id="1_1_2" edges="
-165171783#1 -165171783#0 165171783#0 165171783#1 165171783#2 1371061454 319058613#0 319058613#1 319058613#2 165170673#0 165170673#1 165170673#2 1338884371#8 1338884371#0 1338884371#1 1338884371#2 1338884373 -509025806#2 -509025806#1 -509025806#0 -1238948418#0 509033674#0 509033674#1 394443151#0 -196288048 394443151#2 153732964 -269702559 -36933151#0 36933113 39820664#9 36933223 36933282#0 36933282#1 -36288851#2 36284386#0 36284386#1 36933240 394446867#1 710476653#0 710476653#1 710476654 -36934835#1 -36934835#0 36936220 37051113#0 37051113#1 1119245072 37056055#1 319058606 37052930
" />
<route id="1_1_3" edges="
-165171783#1 -165171783#0 165171783#0 165171783#1 165171783#2 1371061454 319058613#0 319058613#1 319058613#2 165170673#0 165170673#1 165170673#2 1338884371#8 1338884377 1338884376 1338884371#1 1338884371#2 1338884373 -509025806#2 -509025806#1 -509025806#0 -1238948418#0 509033674#0 509033674#1 394443151#0 -196288048 394443151#2 153732964 -269702559 -36933151#0 36933113 39820664#9 36933223 36933282#0 36933282#1 -36288851#2 36284386#0 36284386#1 36933240 394446867#1 710476653#0 710476653#1 710476654 -36934835#1 -36934835#0 36936220 37051113#0 37051113#1 1119245072 37056055#1 319058606 37052930
" />
<route id="1_3_0" edges="
-165171783#1 -165171783#0 165170684#0 165170684#1 1238426242 165172166 165172165#0 165172165#1 165172165#2 1238426243 698024160 -1239117045 -36936749#5 -36936749#4 -36936749#3 -36936749#2 -36936749#1 -36936749#0 319058644 698026761 37088673#0 -153730010#2
" />
<route id="1_3_1" edges="
-165171783#1 -165171783#0 165170684#0 165170684#1 1238426242 165172166 165172165#0 165172165#1 165172165#2 1238426243 698024160 -1239117045 -36936749#5 -153730008#2 153730008#2 -36936749#4 -36936749#3 -36936749#2 -36936749#1 -36936749#0 319058644 698026761 37088673#0 -153730010#2
" />
<route id="1_3_2" edges="
-165171783#1 -165171783#0 165170684#0 165170684#1 1238426242 165172166 165172165#0 165172165#1 165172165#2 319058601 932857453 319058592#3 698024160 -1239117045 -36936749#5 -36936749#4 -36936749#3 -36936749#2 -36936749#1 -36936749#0 319058644 698026761 37088673#0 -153730010#2
" />
<route id="1_3_3" edges="
-165171783#1 -165171783#0 165170684#0 165170684#1 1238426242 165172166 165172165#0 165172165#1 165172165#2 1238426243 698024160 -1239117045 -36936749#5 -36936749#4 -36936749#3 -153730011 153730011 -36936749#2 -36936749#1 -36936749#0 319058644 698026761 37088673#0 -153730010#2
" />
<route id="1_60_0" edges="
-165171783#1 -165171783#0 165170684#0 -165172642#2 -165172642#1 -165172642#0
" />
<route id="1_60_1" edges="
-165171783#1 -165171783#0 165170684#0 165170684#1 -165170684#1 -165172642#2 -165172642#1 -165172642#0
" />
<route id="1_60_2" edges="
-165171783#1 -165171783#0 -698024152#1 -698024152#0 698024152#0 698024152#1 165170684#0 -165172642#2 -165172642#1 -165172642#0
" />
<route id="1_60_3" edges="
-165171783#1 -165171783#0 165170684#0 165170684#1 1238426242 165172166 165172163 -165170684#1 -165172642#2 -165172642#1 -165172642#0
" />
<route id="1_114_0" edges="
-165171783#1 -165171783#0 165170684#0 165170684#1 1238426242 165172166 165172165#0 165172165#1 165172165#2 1238426243 698024160 -1239117045 -36936749#5 -36936749#4 -36936749#3 -36936749#2 -36936749#1 -36936749#0 319058644 698026761 37088673#0 37088673#1 1239117016#0 1239117016#1 1239117016#2 -36950447#1 -36950447#0 36950586 -319058589#3 -319058589#2 -319058589#1 -319058589#0 -394456379 -36950439#1 -36950439#0 37088258#0 37088258#1 394456378 36950525 1119245069 406210869#0
" />
<route id="1_114_1" edges="
-165171783#1 -165171783#0 165170684#0 165170684#1 1238426242 165172166 165172165#0 165172165#1 165172165#2 1238426243 698024160 -1239117045 -36936749#5 -36936749#4 -36936749#3 -36936749#2 -36936749#1 -36936749#0 319058644 698026761 39820658#0 39820658#1 39820658#2 -508751758#2 -508751758#1 -508751758#0 -1162674260 37088542 710476024#1 157574536#0 157574536#1 153733877 1339510611 157553237#1 36289599#0 36289599#1 157553231 48955689#0 48955689#1 1119245069 406210869#0
" />
<route id="1_114_2" edges="
-165171783#1 -165171783#0 165170684#0 165170684#1 1238426242 165172166 165172165#0 165172165#1 165172165#2 1238426243 698024160 -1239117045 -36936749#5 -36936749#4 -36936749#3 -36936749#2 -36936749#1 -36936749#0 319058644 698026761 39820658#0 39820658#1 39820658#2 -508751758#2 -508751758#1 -508751758#0 -1162674260 37088542 710476024#1 157574536#0 157574536#1 157574536#2 157553237#0 157553237#1 36289599#0 36289599#1 157553231 48955689#0 48955689#1 1119245069 406210869#0
" />
<route id="1_114_3" edges="
-165171783#1 -165171783#0 165170684#0 165170684#1 1238426242 165172166 165172165#0 165172165#1 165172165#2 1238426243 698024160 -1239117045 -36936749#5 -36936749#4 -36936749#3 -36936749#2 -36936749#1 -36936749#0 319058644 698026761 39820658#0 39820658#1 39820658#2 -508751758#2 -508751758#1 -508751758#0 -1162674260 37088542 710476024#1 157574536#0 157574536#1 153733877 1339510611 157553237#1 36289599#0 36289599#1 157553231 48955689#0 48955997 159922990 48955996 406210869#0
" />
<route id="1_132_0" edges="
-165171783#1 -165171783#0 165170684#0 165170684#1 1238426242 698024153 165170686 165170685#0 165170685#1 -698024153
" />
<route id="1_132_1" edges="
-165171783#1 -165171783#0 165171783#0 165171783#1 165171783#2 -165170681#1 -165170681#0 -1238426236 165170685#0 165170685#1 -698024153
" />
<route id="1_132_2" edges="
-165171783#1 -165171783#0 165170684#0 165170684#1 -165170684#1 -165170684#0 165171783#0 165171783#1 165171783#2 -165170681#1 -165170681#0 -1238426236 165170685#0 165170685#1 -698024153
" />
<route id="1_132_3" edges="
-165171783#1 -165171783#0 165170684#0 165170684#1 1238426242 698024153 165170686 1238426236 -1238426236 165170685#0 165170685#1 -698024153
" />
<route id="1_161_0" edges="
-165171783#1 -165171783#0 -698024152#1 -698024152#0 1371061470#0 1371061470#1 1371061468 719004328 36936480#0 36936480#1 36936480#2 39820656#0 39820656#1 -243836884#5 -243836884#4 -243836884#3 -243836884#2 -243836884#1
" />
<route id="1_161_1" edges="
-165171783#1 -165171783#0 165170684#0 -165170684#0 -698024152#1 -698024152#0 1371061470#0 1371061470#1 1371061468 719004328 36936480#0 36936480#1 36936480#2 39820656#0 39820656#1 -243836884#5 -243836884#4 -243836884#3 -243836884#2 -243836884#1
" />
<route id="1_161_2" edges="
-165171783#1 -165171783#0 165170684#0 165170684#1 -165170684#1 -165170684#0 -698024152#1 -698024152#0 1371061470#0 1371061470#1 1371061468 719004328 36936480#0 36936480#1 36936480#2 39820656#0 39820656#1 -243836884#5 -243836884#4 -243836884#3 -243836884#2 -243836884#1
" />
<route id="1_161_3" edges="
-165171783#1 -165171783#0 165170684#0 165170684#1 1238426242 -1238426242 -165170684#1 -165170684#0 -698024152#1 -698024152#0 1371061470#0 1371061470#1 1371061468 719004328 36936480#0 36936480#1 36936480#2 39820656#0 39820656#1 -243836884#5 -243836884#4 -243836884#3 -243836884#2 -243836884#1
" />
<route id="2_2_0" edges="
-1339478328#0 319058604#2 1339478328#1 698018295#1 698018295#2 698018295#3 35802097#0 35802097#1 35802097#2 35802097#3 35802097#4 35802097#5 314422857 710476923 319058591 697627694#0 697627694#1 187827289 1119245073 155153634#0 155153634#1 155153634#2 1119243206 36292768#0 36292768#1 36292768#2 36292830#1 36292830#2 697704135 156460681#0 37054132 -156460683#5
" />
<route id="2_2_1" edges="
-1339478328#0 319058604#2 1339478328#1 -215094374 698018295#2 698018295#3 35802097#0 35802097#1 35802097#2 35802097#3 35802097#4 35802097#5 314422857 710476923 319058591 697627694#0 697627694#1 187827289 1119245073 155153634#0 155153634#1 155153634#2 1119243206 36292768#0 36292768#1 36292768#2 36292830#1 36292830#2 697704135 156460681#0 37054132 -156460683#5
" />
<route id="2_2_2" edges="
-1339478328#0 319058604#2 1339478328#1 -215094374 698018295#2 698018295#3 35802097#0 35802097#1 35802097#2 35802097#3 35802097#4 35802097#5 314422857 710476923 319058591 697627694#0 697627694#1 187827289 1119245073 155153634#0 155153634#1 155153634#2 1119243206 36292768#0 36292768#1 -394456359#1 -394456359#0 36292830#1 36292830#2 697704135 156460681#0 37054132 -156460683#5
" />
<route id="2_2_3" edges="
-1339478328#0 319058604#2 1339478328#1 698018295#1 698018295#2 698018295#3 35802097#0 35802097#1 35802097#2 35802097#3 35802097#4 35802097#5 314422857 710476923 319058591 697627694#0 697627694#1 187827289 1119245073 155153634#0 155153634#1 155153634#2 1119243206 36292768#0 36292768#1 -394456359#1 -394456359#0 36292830#1 36292830#2 697704135 156460681#0 37054132 -156460683#5
" />
<route id="3_3_0" edges="
-1119245057#1 -1119245057#0 1119245060#2 1119245061 319058602#0 319058602#1 36294383#0 37055563#0 332885734#0 332885734#1 332885734#2 37055217#1 -859785184 36950447#0 36950447#1 -1239117016#2 -1239117016#1 -1239117016#0 -37088673#1 -153730010#2
" />
<route id="3_3_1" edges="
-1119245057#1 -1119245057#0 1119245060#2 -156460680#1 -1024000539#0 319058602#1 36294383#0 37055563#0 332885734#0 332885734#1 332885734#2 37055217#1 -859785184 36950447#0 36950447#1 -1239117016#2 -1239117016#1 -1239117016#0 -37088673#1 -153730010#2
" />
<route id="3_3_2" edges="
-1119245057#1 -1119245057#0 1119245060#2 1119245061 319058602#0 319058602#1 -319058602#1 1024000539#0 -1024000539#0 -319058602#0 -1119245061 -156460680#1 156460680#1 -1119245060#2 -1119245060#1 -1119245060#0 37049908 -1024000539#2 -1024000539#1 1024000539#1 1024000539#2 -37049908 1119245060#0 1119245060#1 1119245057#0 1119245057#1 -476687231#3 476687231#3 1119245057#2 1119245057#3 1119245058 36294081#0 36294081#1 36294081#2 36294081#3 36294081#4 243957899#0 243957899#1 -617837421#0 35573922 36295293#8 36295293#9 36295293#0 37066008 -37055563#2 -37055563#1 332885734#0 332885734#1 332885734#2 37055217#1 -859785184 36950447#0 36950447#1 -1239117016#2 -1239117016#1 -1239117016#0 -37088673#1 -153730010#2
" />
<route id="3_3_3" edges="
-1119245057#1 -1119245057#0 1119245060#2 -156460680#1 -1024000539#0 319058602#1 -270968314 -394456356#1 -394456356#0 319058589#0 319058589#1 319058589#2 319058589#3 -859785184 36950447#0 36950447#1 -1239117016#2 -1239117016#1 -1239117016#0 -37088673#1 -153730010#2
" />
<route id="3_78_0" edges="
-1119245057#1 -1119245057#0 1119245057#0 1119245057#1 -476687231#3 -476687231#2 -476687231#1 -476687231#0 -1119245056 -37054066
" />
<route id="3_78_1" edges="
-1119245057#1 -1119245057#0 -1119245060#1 -1119245060#0 -36293459#10 37051872#0 37051872#1 -476687231#2 -476687231#1 -476687231#0 -1119245056 -37054066
" />
<route id="3_78_2" edges="
-1119245057#1 -1119245057#0 1119245060#2 -1119245060#2 1119245057#0 1119245057#1 -476687231#3 -476687231#2 -476687231#1 -476687231#0 -1119245056 -37054066
" />
<route id="3_78_3" edges="
-1119245057#1 -1119245057#0 1119245057#0 1119245057#1 -476687231#3 -37051872#1 -37051872#0 37051872#0 37051872#1 -476687231#2 -476687231#1 -476687231#0 -1119245056 -37054066
" />
<route id="3_145_0" edges="
-1119245057#1 -1119245057#0 -1119245060#1 -1119245060#0 37049908 156460679 37052277#1 37052277#2 37052277#3 -37051625#0 -156480737#2 -156480737#1 394456380 37050590 918716574#1 918716574#2 -36936220 36934835#0 36934835#1 36934835#2 332885553 1339478330 -36285797#2 -36285797#1 -36285797#0 -35802071#0 35801882#1 35801882#2 56080984 -550211682 319058640
" />
<route id="3_145_1" edges="
-1119245057#1 -1119245057#0 -1119245060#1 -1119245060#0 37049908 156460679 37052277#1 37052277#2 37052277#3 -37051625#0 -156480737#2 -156480737#1 394456380 37050590 918716574#1 918716574#2 -36936220 36934835#0 36934835#1 36934835#2 332885553 332885552 -394446867#1 -394446867#0 36284844 -36285797#0 -35802071#0 35801882#1 35801882#2 56080984 -550211682 319058640
" />
<route id="3_145_2" edges="
-1119245057#1 -1119245057#0 1119245060#2 -156460680#1 1024000539#1 1024000539#2 156460679 37052277#1 37052277#2 37052277#3 -37051625#0 -156480737#2 -156480737#1 394456380 37050590 918716574#1 918716574#2 -36936220 36934835#0 36934835#1 36934835#2 332885553 1339478330 -36285797#2 -36285797#1 -36285797#0 -35802071#0 35801882#1 35801882#2 56080984 -550211682 319058640
" />
<route id="3_145_3" edges="
-1119245057#1 -1119245057#0 -1119245060#1 -1119245060#0 37049908 156460679 37052277#1 37052277#2 37052277#3 -37051625#0 -156480737#2 -156480737#1 394456380 37050590 918716574#1 918716574#2 -36936220 36934835#0 36934835#1 36934835#2 -710476653#1 -710476653#0 -394446867#1 -394446867#0 -35802071#2 -35802071#1 -35802071#0 35801882#1 35801882#2 56080984 -550211682 319058640
" />
<route id="4_3_0" edges="
37050051 1119245067 37055902#0 37055902#1 37055902#2 156460671 1119245064 -1024000539#0 319058602#1 -270968314 -394456356#1 -394456356#0 319058589#0 319058589#1 319058589#2 319058589#3 -859785184 36950447#0 36950447#1 -1239117016#2 -1239117016#1 -1239117016#0 -37088673#1 -153730010#2
" />
<route id="4_3_1" edges="
37050051 1119245067 37055902#0 37055902#1 37055902#2 156460671 1119245064 -1024000539#0 319058602#1 36294383#0 37055563#0 332885734#0 332885734#1 332885734#2 37055217#1 -859785184 36950447#0 36950447#1 -1239117016#2 -1239117016#1 -1239117016#0 -37088673#1 -153730010#2
" />
<route id="4_3_2" edges="
37050051 1119245067 37055902#0 37055902#1 37055902#2 156460671 1119245064 -1024000539#0 319058602#1 36294383#0 37055563#0 332885734#0 332885734#1 332885734#2 37055217#1 -859785184 36950447#0 36950447#1 698026762 -698026762 -1239117016#2 -1239117016#1 -1239117016#0 -37088673#1 -153730010#2
" />
<route id="4_3_3" edges="
37050051 1119245067 37055902#0 37055902#1 37055902#2 156460671 1119245064 -1024000539#0 319058602#1 36294383#0 37055563#0 -37055563#0 36294383#1 -36294383#1 -36294383#0 -270968314 -394456356#1 -394456356#0 319058589#0 319058589#1 319058589#2 319058589#3 -859785184 36950447#0 36950447#1 -1239117016#2 -1239117016#1 -1239117016#0 -37088673#1 -153730010#2
" />
<route id="5_4_0" edges="
-153730016#1 153730016#1 153730022#3 -153730015#0 -36936749#1 -36936749#0 319058644 698026761 39820658#0 39820658#1 39820658#2 -508751758#2 -508751758#1 -508751758#0 -319058587#2 -319058587#1 -319058587#0 -319058586 -1088466838#1 -1088466838#0 -37088447#2 -37088447#1 -37088447#0 -36933126#2 -36933126#1 -36933126#0 -1239117024 -394443151#2
" />
<route id="5_4_1" edges="
-153730016#1 153730016#1 -153730022#2 153730022#2 153730022#3 -153730015#0 -36936749#1 -36936749#0 319058644 698026761 39820658#0 39820658#1 39820658#2 -508751758#2 -508751758#1 -508751758#0 -319058587#2 -319058587#1 -319058587#0 -319058586 -1088466838#1 -1088466838#0 -37088447#2 -37088447#1 -37088447#0 -36933126#2 -36933126#1 -36933126#0 -1239117024 -394443151#2
" />
<route id="5_4_2" edges="
-153730016#1 153730016#1 153730022#3 -153730015#0 36936749#2 -36936749#2 -36936749#1 -36936749#0 319058644 698026761 39820658#0 39820658#1 39820658#2 -508751758#2 -508751758#1 -508751758#0 -319058587#2 -319058587#1 -319058587#0 -319058586 -1088466838#1 -1088466838#0 -37088447#2 -37088447#1 -37088447#0 -36933126#2 -36933126#1 -36933126#0 -1239117024 -394443151#2
" />
<route id="5_4_3" edges="
-153730016#1 153730016#1 153730022#3 -153730015#0 -36936749#1 -36936749#0 319058644 698026761 37088673#0 -37088673#0 39820658#0 39820658#1 39820658#2 -508751758#2 -508751758#1 -508751758#0 -319058587#2 -319058587#1 -319058587#0 -319058586 -1088466838#1 -1088466838#0 -37088447#2 -37088447#1 -37088447#0 -36933126#2 -36933126#1 -36933126#0 -1239117024 -394443151#2
" />
<route id="6_0_0" edges="
-859784039#0 -36950518#1 -36950518#0 37088258#0 37088258#1 394456378 36950525 1119245069 406210869#0 406210869#1 319058612#0 319058612#1 36288941#0 36288941#1 36288941#2 36936373#0 36936373#1 36936373#2 36936373#3 36936373#4 201772610 157574535 -36933126#2 -36933126#1 -36933126#0 -1239117024 -394443151#2 -394443151#1 -394443151#0 394443143#0 394443143#1 394443143#2 1238948418#0 1238948418#1 509025806#1 509025806#2 1338884372 1338884371#4 1338884371#5 1338884371#6 1338884371#7 1338884371#8 1338884377 243836884#0 243836884#1 243836884#2 243836884#3 243836884#4 243836884#5 -243836884#5
" />
<route id="6_0_1" edges="
-859784039#0 -36950518#1 37051441#0 37051441#1 37051441#2 -37051625#2 -37051625#1 37052277#4 1237352048 1119245070 319058612#0 319058612#1 36288941#0 36288941#1 36288941#2 36936373#0 36936373#1 36936373#2 36936373#3 36936373#4 201772610 157574535 -36933126#2 -36933126#1 -36933126#0 -1239117024 -394443151#2 196288048 -394443151#0 394443143#0 394443143#1 394443143#2 1238948418#0 1238948418#1 509025806#1 509025806#2 1338884372 1338884371#4 1338884371#5 1338884371#6 1338884371#7 1338884371#8 1338884377 243836884#0 243836884#1 243836884#2 243836884#3 243836884#4 243836884#5 -243836884#5
" />
<route id="6_0_2" edges="
-859784039#0 -36950518#1 37051441#0 37051441#1 37051441#2 -37051625#2 -37051625#1 37052277#4 1237352048 1119245070 319058612#0 319058612#1 36288941#0 36288941#1 36288941#2 36936373#0 36936373#1 36936373#2 36936373#3 36936373#4 201772610 157574535 -36933126#2 -36933126#1 -36933126#0 -1239117024 -394443151#2 -394443151#1 -394443151#0 394443143#0 394443143#1 394443143#2 1238948418#0 1238948418#1 509025806#1 509025806#2 1338884372 1338884371#4 1338884371#5 1338884371#6 1338884371#7 1338884371#8 1338884377 243836884#0 243836884#1 243836884#2 243836884#3 243836884#4 243836884#5 -243836884#5
" />
<route id="6_0_3" edges="
-859784039#0 -36950518#1 -36950518#0 37088258#0 37088258#1 394456378 36950525 1119245069 406210869#0 406210869#1 319058612#0 319058612#1 36288941#0 36288941#1 36288941#2 36936373#0 36936373#1 36936373#2 36936373#3 36936373#4 201772610 157574535 -36933126#2 -36933126#1 -36933126#0 -1239117024 -394443151#2 196288048 -394443151#0 394443143#0 394443143#1 394443143#2 1238948418#0 1238948418#1 509025806#1 509025806#2 1338884372 1338884371#4 1338884371#5 1338884371#6 1338884371#7 1338884371#8 1338884377 243836884#0 243836884#1 243836884#2 243836884#3 243836884#4 243836884#5 -243836884#5
" />
<route id="6_5_0" edges="
-859784039#0 -36950518#1 36950518#1 36950518#2 859784039#1 859784039#2 -319058602#1 -319058602#0 -1119245061 -1119245060#2 -1119245060#1 -1119245060#0
" />
<route id="6_5_1" edges="
-859784039#0 -36950518#1 36950518#1 36950518#2 859784039#1 859784039#2 -319058602#1 1024000539#0 156460680#1 -1119245060#2 -1119245060#1 -1119245060#0
" />
<route id="6_5_2" edges="
-859784039#0 -36950518#1 -36950518#0 36950518#0 36950518#1 36950518#2 859784039#1 859784039#2 -319058602#1 -319058602#0 -1119245061 -1119245060#2 -1119245060#1 -1119245060#0
" />
<route id="6_5_3" edges="
-859784039#0 -36950518#1 37051441#0 37051441#1 37051441#2 37055902#1 37055902#2 156460671 1119245064 156460680#1 -1119245060#2 -1119245060#1 -1119245060#0
" />
<route id="6_10_0" edges="
-859784039#0 -36950518#1 37051441#0 37051441#1 37051441#2 -37051625#2 -37051625#1 -37051625#0 -156480737#2 -156480737#1 394456380 37056002 1119245115 37056017 -159922662#1 37054401 37056055#1 319058606 37052930 698018294#0 698018294#1 1238956370 36935056 36935040#0 36935040#1 36935040#2 36935040#3 1238956371 187827287 1119245264#0 1119245264#1 319058598 37640683 187827276
" />
<route id="6_10_1" edges="
-859784039#0 -36950518#1 37051441#0 37051441#1 37051441#2 -37051625#2 -37051625#1 -37051625#0 -156480737#2 -156480737#1 394456380 37056002 1119245115 37056017 -159922662#1 37054401 37056055#1 319058606 159922661 -270968320 37052930 698018294#0 698018294#1 1238956370 36935056 36935040#0 36935040#1 36935040#2 36935040#3 1238956371 187827287 1119245264#0 1119245264#1 319058598 37640683 187827276
" />
<route id="6_10_2" edges="
-859784039#0 -36950518#1 37051441#0 37051441#1 37051441#2 -37051625#2 -37051625#1 -37051625#0 -156480737#2 -156480737#1 394456380 37056002 1119245115 37056017 -159922662#1 -159922662#0 -156460682#0 -37054319 -270968320 37052930 698018294#0 698018294#1 1238956370 36935056 36935040#0 36935040#1 36935040#2 36935040#3 1238956371 187827287 1119245264#0 1119245264#1 319058598 37640683 187827276
" />
<route id="6_10_3" edges="
-859784039#0 -36950518#1 37051441#0 37051441#1 37051441#2 -37051625#2 -37051625#1 -37051625#0 -156480737#2 -156480737#1 394456380 37050590 918716574#1 918716574#2 37051113#0 37051113#1 1119245072 37056055#1 319058606 37052930 698018294#0 698018294#1 1238956370 36935056 36935040#0 36935040#1 36935040#2 36935040#3 1238956371 187827287 1119245264#0 1119245264#1 319058598 37640683 187827276
" />
<route id="6_12_0" edges="
-859784039#0 -36950518#1 37051441#0 37051441#1 37051441#2 -37051625#2 -37051625#1 37052277#4 1237352048 1119245070 319058612#0 319058612#1 36288941#0 36288941#1 36288941#2 36936373#0 36936373#1 36936373#2 36936373#3
" />
<route id="6_12_1" edges="
-859784039#0 -36950518#1 -36950518#0 37088258#0 37088258#1 394456378 36950525 1119245069 406210869#0 406210869#1 319058612#0 319058612#1 36288941#0 36288941#1 36288941#2 36936373#0 36936373#1 36936373#2 36936373#3
" />
<route id="6_12_2" edges="
-859784039#0 -36950518#1 -36950518#0 37088258#0 37088258#1 394456378 36950525 1119245069 406210869#0 406210869#1 319058612#0 319058612#1 36288941#0 -36288941#0 36936407#0 36936407#1 36936380 -36936392#1 -36936392#0 36288941#1 36288941#2 36936373#0 36936373#1 36936373#2 36936373#3
" />
<route id="6_12_3" edges="
-859784039#0 -36950518#1 -36950518#0 37088258#0 37050051 1119245067 37055902#0 -37051625#2 -37051625#1 37052277#4 1237352048 1119245070 319058612#0 319058612#1 36288941#0 36288941#1 36288941#2 36936373#0 36936373#1 36936373#2 36936373#3
" />
<route id="6_14_0" edges="
-859784039#0 -36950518#1 -36950518#0 36950439#0 36950439#1 394456379 319058589#0 319058589#1 319058589#2 319058589#3 -859785184 36950447#0 36950447#1 698026762 -698026762
" />
<route id="6_14_1" edges="
-859784039#0 -36950518#1 36950518#1 36950518#2 859784039#1 -394456356#1 -394456356#0 319058589#0 319058589#1 319058589#2 319058589#3 -859785184 36950447#0 36950447#1 698026762 -698026762
" />
<route id="6_14_2" edges="
-859784039#0 -36950518#1 -36950518#0 36950518#0 36950518#1 36950518#2 859784039#1 -394456356#1 -394456356#0 319058589#0 319058589#1 319058589#2 319058589#3 -859785184 36950447#0 36950447#1 698026762 -698026762
" />
<route id="6_14_3" edges="
-859784039#0 -36950518#1 36950518#1 36950518#2 859784039#1 -394456356#1 -394456356#0 319058589#0 319058589#1 319058589#2 319058589#3 37055188#0 -37055188#0 -859785184 36950447#0 36950447#1 698026762 -698026762
" />
<route id="6_36_0" edges="
-859784039#0 -36950518#1 -36950518#0 36950439#0 36950439#1 394456379 319058589#0 319058589#1 319058589#2 319058589#3 -859785184 36950447#0 36950447#1 -1239117016#2 -1239117016#1 -1239117016#0 -37088673#1 -37088673#0 39820658#0 39820658#1 39820658#2 508751757#0 508751757#1 508751757#2 36936541 697740912 319058636 36936749#0 36936749#1 36936749#2 36936749#3 36936749#4 -153730008#2 -153730020#3 -153730020#2 -153730020#1 -153730020#0
" />
<route id="6_36_1" edges="
-859784039#0 -36950518#1 -36950518#0 36950439#0 36950439#1 394456379 319058589#0 319058589#1 319058589#2 319058589#3 -859785184 36950447#0 36950447#1 -1239117016#2 -1239117016#1 -1239117016#0 -37088673#1 -37088673#0 39820658#0 39820658#1 39820658#2 508751757#0 508751757#1 508751757#2 36936541 697740912 319058636 36936749#0 36936749#1 36936749#2 36936749#3 153730008#0 153730008#1 -153730020#3 -153730020#2 -153730020#1 -153730020#0
" />
<route id="6_36_2" edges="
-859784039#0 -36950518#1 -36950518#0 36950439#0 36950439#1 394456379 319058589#0 319058589#1 319058589#2 319058589#3 -859785184 36950447#0 36950447#1 -1239117016#2 -1239117016#1 -1239117016#0 -37088673#1 -37088673#0 39820658#0 39820658#1 39820658#2 508751757#0 508751757#1 508751757#2 36936541 697740912 319058636 36936749#0 36936749#1 36936749#2 36936749#3 36936749#4 -153730008#2 -153730020#3 -153730020#2 -319779154 -153730018 -153730020#0
" />
<route id="6_36_3" edges="
-859784039#0 -36950518#1 -36950518#0 36950439#0 36950439#1 394456379 319058589#0 319058589#1 319058589#2 319058589#3 -859785184 36950447#0 36950447#1 -1239117016#2 -1239117016#1 -1239117016#0 -37088673#1 -37088673#0 39820658#0 39820658#1 39820658#2 508751757#0 508751757#1 508751757#2 36936541 697740912 319058636 36936749#0 36936749#1 36936749#2 36936749#3 153730008#0 153730013#0 -153730017 -153730014#0 -153730020#2 -153730020#1 -153730020#0
" />
<route id="7_6_0" edges="
36936590#6 36936590#7 36936590#8 1239117013#1 1239117013#2 36936494#0 36936494#1 36936655#0 36936655#1 36936655#2 36936655#3 36936655#4 36936655#5 36936655#6 319779156#0 319779156#1 319058636 36936749#0 36936749#1 36936749#2 36936749#3 36936749#4 36936749#5 319779134 36936867 -165172165#2 -165172165#1 319058646#0 319058646#1
" />
<route id="7_6_1" edges="
36936590#6 36936590#7 36936590#8 1239117013#1 1239117013#2 36936494#0 36936494#1 36936655#0 36936655#1 153732960#0 153732960#1 394443153#1 202422660#0 202422660#1 202422660#2 319779156#0 319779156#1 319058636 36936749#0 36936749#1 36936749#2 36936749#3 36936749#4 36936749#5 319779134 36936867 -165172165#2 -165172165#1 319058646#0 319058646#1
" />
<route id="7_6_2" edges="
36936590#6 36936590#7 36936590#8 1239117013#1 1239117013#2 36936494#0 36936494#1 36936655#0 -650145324#3 650145324#3 36936655#1 36936655#2 36936655#3 36936655#4 36936655#5 36936655#6 319779156#0 319779156#1 319058636 36936749#0 36936749#1 36936749#2 36936749#3 36936749#4 36936749#5 319779134 36936867 -165172165#2 -165172165#1 319058646#0 319058646#1
" />
<route id="7_6_3" edges="
36936590#6 36936590#7 36936590#8 1239117013#1 243704191#0 1239117012#3 1239117012#4 1239117012#5 36936616#1 36936616#2 36936616#3 36936616#4 36936616#5 36936616#6 36936480#0 36936480#1 36936480#2 719004327 719004331 1371061469#0 1371061469#1 698024152#0 698024152#1 165170684#0 165170684#1 1238426242 165172166 165172165#0 319058646#0 319058646#1
" />
<route id="7_30_0" edges="
36936590#6 36936590#7 36936590#8 1239117013#1 243704191#0 1239117012#3 1239117012#4 1239117012#5 36936616#1 36936616#2 36936616#3 36936616#4 36936616#5 36936616#6 36936480#0 36936480#1 36936480#2 719004327 719004331 1371061469#0 1371061469#1 698024152#0 698024152#1 165170684#0 165170684#1 1238426242 698024153 165170686 165170685#0 165170685#1
" />
<route id="7_30_1" edges="