<additional>
<inductionLoop id="-1024000539#0_det" lane="-1024000539#0_0" pos="-5" file="NUL" friendlyPos="True"/>
<inductionLoop id="-1024000539#1_det" lane="-1024000539#1_0" pos="-5" file="NUL" friendlyPos="True"/>
<inductionLoop id="-1024000539#2_det" lane="-1024000539#2_0" pos="-5" file="NUL" friendlyPos="True"/>
<inductionLoop id="-1024000539#3_det" lane="-1024000539#3_0" pos="-5" file="NUL" friendlyPos="True"/>
<inductionLoop id="-1024000548_det" lane="-1024000548_0" pos="-5" file="NUL" friendlyPos="True"/>
<inductionLoop id="-1057740876_det" lane="-1057740876_0" pos="-5" file="NUL" friendlyPos="True"/>
<inductionLoop id="-1088466838#0_det" lane="-1088466838#0_0" pos="-5" file="NUL" friendlyPos="True"/>
<inductionLoop id="-1088466838#1_det" lane="-1088466838#1_0" pos="-5" file="NUL" friendlyPos="True"/>
<inductionLoop id="-1109771198#0_det" lane="-1109771198#0_0" pos="-5" file="NUL" friendlyPos="True"/>
<inductionLoop id="-1109771198#1_det" lane="-1109771198#1_0" pos="-5" file="NUL" friendlyPos="True"/>
<inductionLoop id="-1119243207_det" lane="-1119243207_0" pos="-5" file="NUL" friendlyPos="True"/>
<inductionLoop id="-1119245056_det" lane="-1119245056_0" pos="-5" file="NUL" friendlyPos="True"/>
<inductionLoop id="-1119245057#0_det" lane="-1119245057#0_0" pos="-5" file="NUL" friendlyPos="True"/>
<inductionLoop id="-1119245057#1_det" lane="-1119245057#1_0" pos="-5" file="NUL" friendlyPos="True"/>
<inductionLoop id="-1119245057#2_det" lane="-1119245057#2_0" pos="-5" file="NUL" friendlyPos="True"/>
<inductionLoop id="-1119245057#3_det" lane="-1119245057#3_0" pos="-5" file="NUL" friendlyPos="True"/>
<inductionLoop id="-1119245058_det" lane="-1119245058_0" pos="-5" file="NUL" friendlyPos="True"/>
<inductionLoop id="-1119245060#0_det" lane="-1119245060#0_0" pos="-5" file="NUL" friendlyPos="True"/>
<inductionLoop id="-1119245060#1_det" lane="-1119245060#1_0" pos="-5" file="NUL" friendlyPos="True"/>
<inductionLoop id="-1119245060#2_det" lane="-1119245060#2_0" pos="-5" file="NUL" friendlyPos="True"/>
<inductionLoop id="-1119245061_det" lane="-1119245061_0" pos="-5" file="NUL" friendlyPos="True"/>
<inductionLoop id="-1119245070_det" lane="-1119245070_0" pos="-5" file="NUL" friendlyPos="True"/>
<inductionLoop id="-1119245071_det" lane="-1119245071_0" pos="-5" file="NUL" friendlyPos="True"/>
<inductionLoop id="-1119245074_det" lane="-1119245074_0" pos="-5" file="NUL" friendlyPos="True"/>
<inductionLoop id="-1119245692_det" lane="-1119245692_0" pos="-5" file="NUL" friendlyPos="True"/>
<inductionLoop id="-1119245693_det" lane="-1119245693_0" pos="-5" file="NUL" friendlyPos="True"/>
<inductionLoop id="-1162674260_det" lane="-1162674260_0" pos="-5" file="NUL" friendlyPos="True"/>
<inductionLoop id="-1237369283_det" lane="-1237369283_0" pos="-5" file="NUL" friendlyPos="True"/>
<inductionLoop id="-1238426234#0_det" lane="-1238426234#0_0" pos="-5" file="NUL" friendlyPos="True"/>
<inductionLoop id="-1238426236_det" lane="-1238426236_0" pos="-5" file="NUL" friendlyPos="True"/>
<inductionLoop id="-1238426242_det" lane="-1238426242_0" pos="-5" file="NUL" friendlyPos="True"/>
<inductionLoop id="-1238426243_det" lane="-1238426243_0" pos="-5" file="NUL" friendlyPos="True"/>
<inductionLoop id="-1238948418#0_det" lane="-1238948418#0_0" pos="-5" file="NUL" friendlyPos="True"/>
<inductionLoop id="-1239117016#0_det" lane="-1239117016#0_0" pos="-5" file="NUL" friendlyPos="True"/>
<inductionLoop id="-1239117016#1_det" lane="-1239117016#1_0" pos="-5" file="NUL" friendlyPos="True"/>
<inductionLoop id="-1239117016#2_det" lane="-1239117016#2_0" pos="-5" file="NUL" friendlyPos="True"/>
<inductionLoop id="-1239117021_det" lane="-1239117021_0" pos="-5" file="NUL" friendlyPos="True"/>
<inductionLoop id="-1239117024_det" lane="-1239117024_0" pos="-5" file="NUL" friendlyPos="True"/>
<inductionLoop id="-1239117045_det" lane="-1239117045_0" pos="-5" file="NUL" friendlyPos="True"/>
<inductionLoop id="-1299820133_det" lane="-1299820133_0" pos="-5" file="NUL" friendlyPos="True"/>
<inductionLoop id="-1339478328#0_det" lane="-1339478328#0_0" pos="-5" file="NUL" friendlyPos="True"/>
<inductionLoop id="-1339510606#0_det" lane="-1339510606#0_0" pos="-5" file="NUL" friendlyPos="True"/>
<inductionLoop id="-1339510606#1_det" lane="-1339510606#1_0" pos="-5" file="NUL" friendlyPos="True"/>
<inductionLoop id="-1339510609#0_det" lane="-1339510609#0_0" pos="-5" file="NUL" friendlyPos="True"/>
<inductionLoop id="-1339510610_det" lane="-1339510610_0" pos="-5" file="NUL" friendlyPos="True"/>
<inductionLoop id="-1371061454_det" lane="-1371061454_0" pos="-5" file="NUL" friendlyPos="True"/>
<inductionLoop id="-13937774#0_det" lane="-13937774#0_0" pos="-5" file="NUL" friendlyPos="True"/>
<inductionLoop id="-13937774#1_det" lane="-13937774#1_0" pos="-5" file="NUL" friendlyPos="True"/>
<inductionLoop id="-153730008#0_det" lane="-153730008#0_0" pos="-5" file="NUL" friendlyPos="True"/>
<inductionLoop id="-153730008#1_det" lane="-153730008#1_0" pos="-5" file="NUL" friendlyPos="True"/>
<inductionLoop id="-153730008#2_det" lane="-153730008#2_0" pos="-5" file="NUL" friendlyPos="True"/>
<inductionLoop id="-153730010#0_det" lane="-153730010#0_0" pos="-5" file="NUL" friendlyPos="True"/>
<inductionLoop id="-153730010#1_det" lane="-153730010#1_0" pos="-5" file="NUL" friendlyPos="True"/>
<inductionLoop id="-153730010#2_det" lane="-153730010#2_0" pos="-5" file="NUL" friendlyPos="True"/>
<inductionLoop id="-153730011_det" lane="-153730011_0" pos="-5" file="NUL" friendlyPos="True"/>
<inductionLoop id="-153730013#0_det" lane="-153730013#0_0" pos="-5" file="NUL" friendlyPos="True"/>
<inductionLoop id="-153730013#1_det" lane="-153730013#1_0" pos="-5" file="NUL" friendlyPos="True"/>
<inductionLoop id="-153730013#2_det" lane="-153730013#2_0" pos="-5" file="NUL" friendlyPos="True"/>
<inductionLoop id="-153730014#0_det" lane="-153730014#0_0" pos="-5" file="NUL" friendlyPos="True"/>
<inductionLoop id="-153730014#1_det" lane="-153730014#1_0" pos="-5" file="NUL" friendlyPos="True"/>
<inductionLoop id="-153730015#0_det" lane="-153730015#0_0" pos="-5" file="NUL" friendlyPos="True"/>
<inductionLoop id="-153730015#1_det" lane="-153730015#1_0" pos="-5" file="NUL" friendlyPos="True"/>
<inductionLoop id="-153730015#2_det" lane="-153730015#2_0" pos="-5" file="NUL" friendlyPos="True"/>
<inductionLoop id="-153730015#3_det" lane="-153730015#3_0" pos="-5" file="NUL" friendlyPos="True"/>
<inductionLoop id="-153730016#0_det" lane="-153730016#0_0" pos="-5" file="NUL" friendlyPos="True"/>
<inductionLoop id="-153730016#1_det" lane="-153730016#1_0" pos="-5" file="NUL" friendlyPos="True"/>
<inductionLoop id="-153730017_det" lane="-153730017_0" pos="-5" file="NUL" friendlyPos="True"/>
<inductionLoop id="-153730018_det" lane="-153730018_0" pos="-5" file="NUL" friendlyPos="True"/>
<inductionLoop id="-153730020#0_det" lane="-153730020#0_0" pos="-5" file="NUL" friendlyPos="True"/>
<inductionLoop id="-153730020#1_det" lane="-153730020#1_0" pos="-5" file="NUL" friendlyPos="True"/>
<inductionLoop id="-153730020#2_det" lane="-153730020#2_0" pos="-5" file="NUL" friendlyPos="True"/>
<inductionLoop id="-153730020#3_det" lane="-153730020#3_0" pos="-5" file="NUL" friendlyPos="True"/>
<inductionLoop id="-153730022#0_det" lane="-153730022#0_0" pos="-5" file="NUL" friendlyPos="True"/>
<inductionLoop id="-153730022#1_det" lane="-153730022#1_0" pos="-5" file="NUL" friendlyPos="True"/>
<inductionLoop id="-153730022#2_det" lane="-153730022#2_0" pos="-5" file="NUL" friendlyPos="True"/>
<inductionLoop id="-153730022#3_det" lane="-153730022#3_0" pos="-5" file="NUL" friendlyPos="True"/>
<inductionLoop id="-153730925#0_det" lane="-153730925#0_0" pos="-5" file="NUL" friendlyPos="True"/>
<inductionLoop id="-153730925#1_det" lane="-153730925#1_0" pos="-5" file="NUL" friendlyPos="True"/>
<inductionLoop id="-153730928_det" lane="-153730928_0" pos="-5" file="NUL" friendlyPos="True"/>
<inductionLoop id="-153730933#0_det" lane="-153730933#0_0" pos="-5" file="NUL" friendlyPos="True"/>
<inductionLoop id="-153730933#1_det" lane="-153730933#1_0" pos="-5" file="NUL" friendlyPos="True"/>
<inductionLoop id="-153730934_det" lane="-153730934_0" pos="-5" file="NUL" friendlyPos="True"/>
<inductionLoop id="-153730935_det" lane="-153730935_0" pos="-5" file="NUL" friendlyPos="True"/>
<inductionLoop id="-153730937_det" lane="-153730937_0" pos="-5" file="NUL" friendlyPos="True"/>
<inductionLoop id="-153730938_det" lane="-153730938_0" pos="-5" file="NUL" friendlyPos="True"/>
<inductionLoop id="-153730939#0_det" lane="-153730939#0_0" pos="-5" file="NUL" friendlyPos="True"/>
<inductionLoop id="-153730939#1_det" lane="-153730939#1_0" pos="-5" file="NUL" friendlyPos="True"/>
<inductionLoop id="-153732960#0_det" lane="-153732960#0_0" pos="-5" file="NUL" friendlyPos="True"/>
<inductionLoop id="-153732963#0_det" lane="-153732963#0_0" pos="-5" file="NUL" friendlyPos="True"/>
<inductionLoop id="-153732963#1_det" lane="-153732963#1_0" pos="-5" file="NUL" friendlyPos="True"/>
<inductionLoop id="-153732963#2_det" lane="-153732963#2_0" pos="-5" file="NUL" friendlyPos="True"/>
<inductionLoop id="-153732965_det" lane="-153732965_0" pos="-5" file="NUL" friendlyPos="True"/>
<inductionLoop id="-153732966_det" lane="-153732966_0" pos="-5" file="NUL" friendlyPos="True"/>
<inductionLoop id="-153732967#0_det" lane="-153732967#0_0" pos="-5" file="NUL" friendlyPos="True"/>
<inductionLoop id="-156456329_det" lane="-156456329_0" pos="-5" file="NUL" friendlyPos="True"/>
<inductionLoop id="-156460671_det" lane="-156460671_0" pos="-5" file="NUL" friendlyPos="True"/>
<inductionLoop id="-156460672_det" lane="-156460672_0" pos="-5" file="NUL" friendlyPos="True"/>
<inductionLoop id="-156460677_det" lane="-156460677_0" pos="-5" file="NUL" friendlyPos="True"/>
<inductionLoop id="-156460680#0_det" lane="-156460680#0_0" pos="-5" file="NUL" friendlyPos="True"/>
<inductionLoop id="-156460680#1_det" lane="-156460680#1_0" pos="-5" file="NUL" friendlyPos="True"/>
<inductionLoop id="-156460681#0_det" lane="-156460681#0_0" pos="-5" file="NUL" friendlyPos="True"/>
<inductionLoop id="-156460681#1_det" lane="-156460681#1_0" pos="-5" file="NUL" friendlyPos="True"/>
<inductionLoop id="-156460681#2_det" lane="-156460681#2_0" pos="-5" file="NUL" friendlyPos="True"/>
<inductionLoop id="-156460682#0_det" lane="-156460682#0_0" pos="-5" file="NUL" friendlyPos="True"/>
<inductionLoop id="-156460683#0_det" lane="-156460683#0_0" pos="-5" file="NUL" friendlyPos="True"/>
<inductionLoop id="-156460683#1_det" lane="-156460683#1_0" pos="-5" file="NUL" friendlyPos="True"/>
<inductionLoop id="-156460683#2_det" lane="-156460683#2_0" pos="-5" file="NUL" friendlyPos="True"/>
<inductionLoop id="-156460683#3_det" lane="-156460683#3_0" pos="-5" file="NUL" friendlyPos="True"/>
<inductionLoop id="-156460683#4_det" lane="-156460683#4_0" pos="-5" file="NUL" friendlyPos="True"/>
<inductionLoop id="-156460683#5_det" lane="-156460683#5_0" pos="-5" file="NUL" friendlyPos="True"/>
<inductionLoop id="-156460683#6_det" lane="-156460683#6_0" pos="-5" file="NUL" friendlyPos="True"/>
<inductionLoop id="-156460683#7_det" lane="-156460683#7_0" pos="-5" file="NUL" friendlyPos="True"/>
<inductionLoop id="-156460683#8_det" lane="-156460683#8_0" pos="-5" file="NUL" friendlyPos="True"/>
<inductionLoop id="-156460688_det" lane="-156460688_0" pos="-5" file="NUL" friendlyPos="True"/>
<inductionLoop id="-156460691_det" lane="-156460691_0" pos="-5" file="NUL" friendlyPos="True"/>
<inductionLoop id="-156466987_det" lane="-156466987_0" pos="-5" file="NUL" friendlyPos="True"/>
<inductionLoop id="-156466988#3_det" lane="-156466988#3_0" pos="-5" file="NUL" friendlyPos="True"/>
<inductionLoop id="-156466990_det" lane="-156466990_0" pos="-5" file="NUL" friendlyPos="True"/>
<inductionLoop id="-156466992#0_det" lane="-156466992#0_0" pos="-5" file="NUL" friendlyPos="True"/>
<inductionLoop id="-156466992#1_det" lane="-156466992#1_0" pos="-5" file="NUL" friendlyPos="True"/>
<inductionLoop id="-156466994#0_det" lane="-156466994#0_0" pos="-5" file="NUL" friendlyPos="True"/>
<inductionLoop id="-156466994#1_det" lane="-156466994#1_0" pos="-5" file="NUL" friendlyPos="True"/>
<inductionLoop id="-156466994#2_det" lane="-156466994#2_0" pos="-5" file="NUL" friendlyPos="True"/>
<inductionLoop id="-156466996#0_det" lane="-156466996#0_0" pos="-5" file="NUL" friendlyPos="True"/>
<inductionLoop id="-156466997#0_det" lane="-156466997#0_0" pos="-5" file="NUL" friendlyPos="True"/>
<inductionLoop id="-156466997#1_det" lane="-156466997#1_0" pos="-5" file="NUL" friendlyPos="True"/>
<inductionLoop id="-156466997#3_det" lane="-156466997#3_0" pos="-5" file="NUL" friendlyPos="True"/>
<inductionLoop id="-156466999#0_det" lane="-156466999#0_0" pos="-5" file="NUL" friendlyPos="True"/>
<inductionLoop id="-156466999#1_det" lane="-156466999#1_0" pos="-5" file="NUL" friendlyPos="True"/>
<inductionLoop id="-156467655#1_det" lane="-156467655#1_0" pos="-5" file="NUL" friendlyPos="True"/>
<inductionLoop id="-156467656#0_det" lane="-156467656#0_0" pos="-5" file="NUL" friendlyPos="True"/>
<inductionLoop id="-156467657_det" lane="-156467657_0" pos="-5" file="NUL" friendlyPos="True"/>
<inductionLoop id="-156480735_det" lane="-156480735_0" pos="-5" file="NUL" friendlyPos="True"/>
<inductionLoop id="-156480737#1_det" lane="-156480737#1_0" pos="-5" file="NUL" friendlyPos="True"/>
<inductionLoop id="-156480737#2_det" lane="-156480737#2_0" pos="-5" file="NUL" friendlyPos="True"/>
<inductionLoop id="-156480737#3_det" lane="-156480737#3_0" pos="-5" file="NUL" friendlyPos="True"/>
<inductionLoop id="-156480752_det" lane="-156480752_0" pos="-5" file="NUL" friendlyPos="True"/>
<inductionLoop id="-156480755_det" lane="-156480755_0" pos="-5" file="NUL" friendlyPos="True"/>
<inductionLoop id="-157553230_det" lane="-157553230_0" pos="-5" file="NUL" friendlyPos="True"/>
<inductionLoop id="-157553232_det" lane="-157553232_0" pos="-5" file="NUL" friendlyPos="True"/>
<inductionLoop id="-157553234_det" lane="-157553234_0" pos="-5" file="NUL" friendlyPos="True"/>
<inductionLoop id="-157553237#0_det" lane="-157553237#0_0" pos="-5" file="NUL" friendlyPos="True"/>
<inductionLoop id="-157553237#1_det" lane="-157553237#1_0" pos="-5" file="NUL" friendlyPos="True"/>
<inductionLoop id="-157553238_det" lane="-157553238_0" pos="-5" file="NUL" friendlyPos="True"/>
<inductionLoop id="-157555050#0_det" lane="-157555050#0_0" pos="-5" file="NUL" friendlyPos="True"/>
<inductionLoop id="-157555050#1_det" lane="-157555050#1_0" pos="-5" file="NUL" friendlyPos="True"/>
<inductionLoop id="-157555050#2_det" lane="-157555050#2_0" pos="-5" file="NUL" friendlyPos="True"/>
<inductionLoop id="-157555050#3_det" lane="-157555050#3_0" pos="-5" file="NUL" friendlyPos="True"/>
<inductionLoop id="-157555050#4_det" lane="-157555050#4_0" pos="-5" file="NUL" friendlyPos="True"/>
<inductionLoop id="-157555050#5_det" lane="-157555050#5_0" pos="-5" file="NUL" friendlyPos="True"/>
<inductionLoop id="-157574536#0_det" lane="-157574536#0_0" pos="-5" file="NUL" friendlyPos="True"/>
<inductionLoop id="-157574536#1_det" lane="-157574536#1_0" pos="-5" file="NUL" friendlyPos="True"/>
<inductionLoop id="-157574537#0_det" lane="-157574537#0_0" pos="-5" file="NUL" friendlyPos="True"/>
<inductionLoop id="-159922662#0_det" lane="-159922662#0_0" pos="-5" file="NUL" friendlyPos="True"/>
<inductionLoop id="-159922662#1_det" lane="-159922662#1_0" pos="-5" file="NUL" friendlyPos="True"/>
<inductionLoop id="-165168675_det" lane="-165168675_0" pos="-5" file="NUL" friendlyPos="True"/>
<inductionLoop id="-165170681#0_det" lane="-165170681#0_0" pos="-5" file="NUL" friendlyPos="True"/>
<inductionLoop id="-165170681#1_det" lane="-165170681#1_0" pos="-5" file="NUL" friendlyPos="True"/>
<inductionLoop id="-165170684#0_det" lane="-165170684#0_0" pos="-5" file="NUL" friendlyPos="True"/>
<inductionLoop id="-165170684#1_det" lane="-165170684#1_0" pos="-5" file="NUL" friendlyPos="True"/>
<inductionLoop id="-165170815#0_det" lane="-165170815#0_0" pos="-5" file="NUL" friendlyPos="True"/>
<inductionLoop id="-165170815#1_det" lane="-165170815#1_0" pos="-5" file="NUL" friendlyPos="True"/>
<inductionLoop id="-165170818#0_det" lane="-165170818#0_0" pos="-5" file="NUL" friendlyPos="True"/>
<inductionLoop id="-165170818#1_det" lane="-165170818#1_0" pos="-5" file="NUL" friendlyPos="True"/>
<inductionLoop id="-165170818#2_det" lane="-165170818#2_0" pos="-5" file="NUL" friendlyPos="True"/>
<inductionLoop id="-165170818#3_det" lane="-165170818#3_0" pos="-5" file="NUL" friendlyPos="True"/>
<inductionLoop id="-165170818#4_det" lane="-165170818#4_0" pos="-5" file="NUL" friendlyPos="True"/>
<inductionLoop id="-165170818#5_det" lane="-165170818#5_0" pos="-5" file="NUL" friendlyPos="True"/>
<inductionLoop id="-165170818#6_det" lane="-165170818#6_0" pos="-5" file="NUL" friendlyPos="True"/>
<inductionLoop id="-165170818#7_det" lane="-165170818#7_0" pos="-5" file="NUL" friendlyPos="True"/>
<inductionLoop id="-165170818#8_det" lane="-165170818#8_0" pos="-5" file="NUL" friendlyPos="True"/>
<inductionLoop id="-165170994#0_det" lane="-165170994#0_0" pos="-5" file="NUL" friendlyPos="True"/>
<inductionLoop id="-165170994#1_det" lane="-165170994#1_0" pos="-5" file="NUL" friendlyPos="True"/>
<inductionLoop id="-165170994#2_det" lane="-165170994#2_0" pos="-5" file="NUL" friendlyPos="True"/>
<inductionLoop id="-165170994#3_det" lane="-165170994#3_0" pos="-5" file="NUL" friendlyPos="True"/>
<inductionLoop id="-165170994#4_det" lane="-165170994#4_0" pos="-5" file="NUL" friendlyPos="True"/>
<inductionLoop id="-165170994#5_det" lane="-165170994#5_0" pos="-5" file="NUL" friendlyPos="True"/>
<inductionLoop id="-165170994#6_det" lane="-165170994#6_0" pos="-5" file="NUL" friendlyPos="True"/>
<inductionLoop id="-165171446_det" lane="-165171446_0" pos="-5" file="NUL" friendlyPos="True"/>
<inductionLoop id="-165171448#0_det" lane="-165171448#0_0" pos="-5" file="NUL" friendlyPos="True"/>
<inductionLoop id="-165171448#1_det" lane="-165171448#1_0" pos="-5" file="NUL" friendlyPos="True"/>
<inductionLoop id="-165171782_det" lane="-165171782_0" pos="-5" file="NUL" friendlyPos="True"/>
<inductionLoop id="-165171783#0_det" lane="-165171783#0_0" pos="-5" file="NUL" friendlyPos="True"/>
<inductionLoop id="-165171783#1_det" lane="-165171783#1_0" pos="-5" file="NUL" friendlyPos="True"/>
<inductionLoop id="-165171783#2_det" lane="-165171783#2_0" pos="-5" file="NUL" friendlyPos="True"/>
<inductionLoop id="-165172165#0_det" lane="-165172165#0_0" pos="-5" file="NUL" friendlyPos="True"/>
<inductionLoop id="-165172165#1_det" lane="-165172165#1_0" pos="-5" file="NUL" friendlyPos="True"/>
<inductionLoop id="-165172165#2_det" lane="-165172165#2_0" pos="-5" file="NUL" friendlyPos="True"/>
<inductionLoop id="-165172307#0_det" lane="-165172307#0_0" pos="-5" file="NUL" friendlyPos="True"/>
<inductionLoop id="-165172307#1_det" lane="-165172307#1_0" pos="-5" file="NUL" friendlyPos="True"/>
<inductionLoop id="-165172642#0_det" lane="-165172642#0_0" pos="-5" file="NUL" friendlyPos="True"/>
<inductionLoop id="-165172642#1_det" lane="-165172642#1_0" pos="-5" file="NUL" friendlyPos="True"/>
<inductionLoop id="-165172642#2_det" lane="-165172642#2_0" pos="-5" file="NUL" friendlyPos="True"/>
<inductionLoop id="-168924811_det" lane="-168924811_0" pos="-5" file="NUL" friendlyPos="True"/>
<inductionLoop id="-187827274_det" lane="-187827274_0" pos="-5" file="NUL" friendlyPos="True"/>
<inductionLoop id="-187827280#0_det" lane="-187827280#0_0" pos="-5" file="NUL" friendlyPos="True"/>
<inductionLoop id="-187827281_det" lane="-187827281_0" pos="-5" file="NUL" friendlyPos="True"/>
<inductionLoop id="-187827282#0_det" lane="-187827282#0_0" pos="-5" file="NUL" friendlyPos="True"/>
<inductionLoop id="-187827282#1_det" lane="-187827282#1_0" pos="-5" file="NUL" friendlyPos="True"/>
<inductionLoop id="-187827282#2_det" lane="-187827282#2_0" pos="-5" file="NUL" friendlyPos="True"/>
<inductionLoop id="-187827283#0_det" lane="-187827283#0_0" pos="-5" file="NUL" friendlyPos="True"/>
<inductionLoop id="-187827283#1_det" lane="-187827283#1_0" pos="-5" file="NUL" friendlyPos="True"/>
<inductionLoop id="-187827283#2_det" lane="-187827283#2_0" pos="-5" file="NUL" friendlyPos="True"/>
<inductionLoop id="-187827283#3_det" lane="-187827283#3_0" pos="-5" file="NUL" friendlyPos="True"/>
<inductionLoop id="-187827283#4_det" lane="-187827283#4_0" pos="-5" file="NUL" friendlyPos="True"/>
<inductionLoop id="-187827288_det" lane="-187827288_0" pos="-5" file="NUL" friendlyPos="True"/>
<inductionLoop id="-187827289_det" lane="-187827289_0" pos="-5" file="NUL" friendlyPos="True"/>
<inductionLoop id="-196288048_det" lane="-196288048_0" pos="-5" file="NUL" friendlyPos="True"/>
<inductionLoop id="-201772616#1_det" lane="-201772616#1_0" pos="-5" file="NUL" friendlyPos="True"/>
<inductionLoop id="-201772616#2_det" lane="-201772616#2_0" pos="-5" file="NUL" friendlyPos="True"/>
<inductionLoop id="-201772616#3_det" lane="-201772616#3_0" pos="-5" file="NUL" friendlyPos="True"/>
<inductionLoop id="-202422660#0_det" lane="-202422660#0_0" pos="-5" file="NUL" friendlyPos="True"/>
<inductionLoop id="-202422660#1_det" lane="-202422660#1_0" pos="-5" file="NUL" friendlyPos="True"/>
<inductionLoop id="-202422660#2_det" lane="-202422660#2_0" pos="-5" file="NUL" friendlyPos="True"/>
<inductionLoop id="-215094374_det" lane="-215094374_0" pos="-5" file="NUL" friendlyPos="True"/>
<inductionLoop id="-218916903_det" lane="-218916903_0" pos="-5" file="NUL" friendlyPos="True"/>
<inductionLoop id="-243836884#0_det" lane="-243836884#0_0" pos="-5" file="NUL" friendlyPos="True"/>
<inductionLoop id="-243836884#1_det" lane="-243836884#1_0" pos="-5" file="NUL" friendlyPos="True"/>
<inductionLoop id="-243836884#2_det" lane="-243836884#2_0" pos="-5" file="NUL" friendlyPos="True"/>
<inductionLoop id="-243836884#3_det" lane="-243836884#3_0" pos="-5" file="NUL" friendlyPos="True"/>
<inductionLoop id="-243836884#4_det" lane="-243836884#4_0" pos="-5" file="NUL" friendlyPos="True"/>
<inductionLoop id="-243836884#5_det" lane="-243836884#5_0" pos="-5" file="NUL" friendlyPos="True"/>
<inductionLoop id="-243836890#0_det" lane="-243836890#0_0" pos="-5" file="NUL" friendlyPos="True"/>
<inductionLoop id="-243836890#1_det" lane="-243836890#1_0" pos="-5" file="NUL" friendlyPos="True"/>
<inductionLoop id="-243836890#2_det" lane="-243836890#2_0" pos="-5" file="NUL" friendlyPos="True"/>
<inductionLoop id="-243957897#0_det" lane="-243957897#0_0" pos="-5" file="NUL" friendlyPos="True"/>
<inductionLoop id="-243957897#1_det" lane="-243957897#1_0" pos="-5" file="NUL" friendlyPos="True"/>
<inductionLoop id="-243957897#2_det" lane="-243957897#2_0" pos="-5" file="NUL" friendlyPos="True"/>
<inductionLoop id="-243957897#3_det" lane="-243957897#3_0" pos="-5" file="NUL" friendlyPos="True"/>
<inductionLoop id="-243957899#0_det" lane="-243957899#0_0" pos="-5" file="NUL" friendlyPos="True"/>
<inductionLoop id="-243957899#1_det" lane="-243957899#1_0" pos="-5" file="NUL" friendlyPos="True"/>
<inductionLoop id="-269702559_det" lane="-269702559_0" pos="-5" file="NUL" friendlyPos="True"/>
<inductionLoop id="-269702560_det" lane="-269702560_0" pos="-5" file="NUL" friendlyPos="True"/>
<inductionLoop id="-269702562_det" lane="-269702562_0" pos="-5" file="NUL" friendlyPos="True"/>
<inductionLoop id="-269702565#0_det" lane="-269702565#0_0" pos="-5" file="NUL" friendlyPos="True"/>
<inductionLoop id="-269702565#1_det" lane="-269702565#1_0" pos="-5" file="NUL" friendlyPos="True"/>
<inductionLoop id="-270968314_det" lane="-270968314_0" pos="-5" file="NUL" friendlyPos="True"/>
<inductionLoop id="-270968319_det" lane="-270968319_0" pos="-5" file="NUL" friendlyPos="True"/>
<inductionLoop id="-270968320_det" lane="-270968320_0" pos="-5" file="NUL" friendlyPos="True"/>
<inductionLoop id="-270968323#1_det" lane="-270968323#1_0" pos="-5" file="NUL" friendlyPos="True"/>
<inductionLoop id="-270968324_det" lane="-270968324_0" pos="-5" file="NUL" friendlyPos="True"/>
<inductionLoop id="-314422857_det" lane="-314422857_0" pos="-5" file="NUL" friendlyPos="True"/>
<inductionLoop id="-319058586_det" lane="-319058586_0" pos="-5" file="NUL" friendlyPos="True"/>
<inductionLoop id="-319058587#0_det" lane="-319058587#0_0" pos="-5" file="NUL" friendlyPos="True"/>
<inductionLoop id="-319058587#1_det" lane="-319058587#1_0" pos="-5" file="NUL" friendlyPos="True"/>
<inductionLoop id="-319058587#2_det" lane="-319058587#2_0" pos="-5" file="NUL" friendlyPos="True"/>
<inductionLoop id="-319058589#0_det" lane="-319058589#0_0" pos="-5" file="NUL" friendlyPos="True"/>
<inductionLoop id="-319058589#1_det" lane="-319058589#1_0" pos="-5" file="NUL" friendlyPos="True"/>
<inductionLoop id="-319058589#2_det" lane="-319058589#2_0" pos="-5" file="NUL" friendlyPos="True"/>
<inductionLoop id="-319058589#3_det" lane="-319058589#3_0" pos="-5" file="NUL" friendlyPos="True"/>
<inductionLoop id="-319058590#0_det" lane="-319058590#0_0" pos="-5" file="NUL" friendlyPos="True"/>
<inductionLoop id="-319058591_det" lane="-319058591_0" pos="-5" file="NUL" friendlyPos="True"/>
<inductionLoop id="-319058593_det" lane="-319058593_0" pos="-5" file="NUL" friendlyPos="True"/>
<inductionLoop id="-319058599_det" lane="-319058599_0" pos="-5" file="NUL" friendlyPos="True"/>
<inductionLoop id="-319058600#0_det" lane="-319058600#0_0" pos="-5" file="NUL" friendlyPos="True"/>
<inductionLoop id="-319058600#1_det" lane="-319058600#1_0" pos="-5" file="NUL" friendlyPos="True"/>
<inductionLoop id="-319058602#0_det" lane="-319058602#0_0" pos="-5" file="NUL" friendlyPos="True"/>
<inductionLoop id="-319058602#1_det" lane="-319058602#1_0" pos="-5" file="NUL" friendlyPos="True"/>
<inductionLoop id="-319058604#0_det" lane="-319058604#0_0" pos="-5" file="NUL" friendlyPos="True"/>
<inductionLoop id="-319058604#1_det" lane="-319058604#1_0" pos="-5" file="NUL" friendlyPos="True"/>
<inductionLoop id="-319058608#0_det" lane="-319058608#0_0" pos="-5" file="NUL" friendlyPos="True"/>
<inductionLoop id="-319058608#1_det" lane="-319058608#1_0" pos="-5" file="NUL" friendlyPos="True"/>
<inductionLoop id="-319058611_det" lane="-319058611_0" pos="-5" file="NUL" friendlyPos="True"/>
<inductionLoop id="-319058613#0_det" lane="-319058613#0_0" pos="-5" file="NUL" friendlyPos="True"/>
<inductionLoop id="-319058613#1_det" lane="-319058613#1_0" pos="-5" file="NUL" friendlyPos="True"/>
<inductionLoop id="-319058613#2_det" lane="-319058613#2_0" pos="-5" file="NUL" friendlyPos="True"/>
<inductionLoop id="-319058625_det" lane="-319058625_0" pos="-5" file="NUL" friendlyPos="True"/>
<inductionLoop id="-319058626_det" lane="-319058626_0" pos="-5" file="NUL" friendlyPos="True"/>
<inductionLoop id="-319058629_det" lane="-319058629_0" pos="-5" file="NUL" friendlyPos="True"/>
<inductionLoop id="-319058645#0_det" lane="-319058645#0_0" pos="-5" file="NUL" friendlyPos="True"/>
<inductionLoop id="-319058645#1_det" lane="-319058645#1_0" pos="-5" file="NUL" friendlyPos="True"/>
<inductionLoop id="-319058646#0_det" lane="-319058646#0_0" pos="-5" file="NUL" friendlyPos="True"/>
<inductionLoop id="-319058646#1_det" lane="-319058646#1_0" pos="-5" file="NUL" friendlyPos="True"/>
<inductionLoop id="-319779150#0_det" lane="-319779150#0_0" pos="-5" file="NUL" friendlyPos="True"/>
<inductionLoop id="-319779150#1_det" lane="-319779150#1_0" pos="-5" file="NUL" friendlyPos="True"/>
<inductionLoop id="-319779150#2_det" lane="-319779150#2_0" pos="-5" file="NUL" friendlyPos="True"/>
<inductionLoop id="-319779150#3_det" lane="-319779150#3_0" pos="-5" file="NUL" friendlyPos="True"/>
<inductionLoop id="-319779153_det" lane="-319779153_0" pos="-5" file="NUL" friendlyPos="True"/>
<inductionLoop id="-319779154_det" lane="-319779154_0" pos="-5" file="NUL" friendlyPos="True"/>
<inductionLoop id="-327342938_det" lane="-327342938_0" pos="-5" file="NUL" friendlyPos="True"/>
<inductionLoop id="-327343082_det" lane="-327343082_0" pos="-5" file="NUL" friendlyPos="True"/>
<inductionLoop id="-327343096_det" lane="-327343096_0" pos="-5" file="NUL" friendlyPos="True"/>
<inductionLoop id="-328471845#0_det" lane="-328471845#0_0" pos="-5" file="NUL" friendlyPos="True"/>
<inductionLoop id="-328471845#1_det" lane="-328471845#1_0" pos="-5" file="NUL" friendlyPos="True"/>
<inductionLoop id="-339700984_det" lane="-339700984_0" pos="-5" file="NUL" friendlyPos="True"/>
<inductionLoop id="-339701637_det" lane="-339701637_0" pos="-5" file="NUL" friendlyPos="True"/>
<inductionLoop id="-339940214_det" lane="-339940214_0" pos="-5" file="NUL" friendlyPos="True"/>
<inductionLoop id="-35801597#3_det" lane="-35801597#3_0" pos="-5" file="NUL" friendlyPos="True"/>
<inductionLoop id="-35801597#4_det" lane="-35801597#4_0" pos="-5" file="NUL" friendlyPos="True"/>
<inductionLoop id="-35801699#0_det" lane="-35801699#0_0" pos="-5" file="NUL" friendlyPos="True"/>
<inductionLoop id="-35801699#1_det" lane="-35801699#1_0" pos="-5" file="NUL" friendlyPos="True"/>
<inductionLoop id="-35802071#0_det" lane="-35802071#0_0" pos="-5" file="NUL" friendlyPos="True"/>
<inductionLoop id="-35802071#1_det" lane="-35802071#1_0" pos="-5" file="NUL" friendlyPos="True"/>
<inductionLoop id="-35802071#2_det" lane="-35802071#2_0" pos="-5" file="NUL" friendlyPos="True"/>
<inductionLoop id="-35802097#0_det" lane="-35802097#0_0" pos="-5" file="NUL" friendlyPos="True"/>
<inductionLoop id="-35802097#1_det" lane="-35802097#1_0" pos="-5" file="NUL" friendlyPos="True"/>
<inductionLoop id="-35802097#2_det" lane="-35802097#2_0" pos="-5" file="NUL" friendlyPos="True"/>
<inductionLoop id="-35802097#3_det" lane="-35802097#3_0" pos="-5" file="NUL" friendlyPos="True"/>
<inductionLoop id="-35802097#4_det" lane="-35802097#4_0" pos="-5" file="NUL" friendlyPos="True"/>
<inductionLoop id="-35802097#5_det" lane="-35802097#5_0" pos="-5" file="NUL" friendlyPos="True"/>
<inductionLoop id="-36284844_det" lane="-36284844_0" pos="-5" file="NUL" friendlyPos="True"/>
<inductionLoop id="-36285797#0_det" lane="-36285797#0_0" pos="-5" file="NUL" friendlyPos="True"/>