<additional>
<inductionLoop id="-101789025#0_det" lane="-101789025#0_0" pos="-5" file="NUL" friendlyPos="True"/>
<inductionLoop id="-101789025#1_det" lane="-101789025#1_0" pos="-5" file="NUL" friendlyPos="True"/>
<inductionLoop id="-101789025#2_det" lane="-101789025#2_0" pos="-5" file="NUL" friendlyPos="True"/>
<inductionLoop id="-101789026#0_det" lane="-101789026#0_0" pos="-5" file="NUL" friendlyPos="True"/>
<inductionLoop id="-101789026#1_det" lane="-101789026#1_0" pos="-5" file="NUL" friendlyPos="True"/>
<inductionLoop id="-101789028#0_det" lane="-101789028#0_0" pos="-5" file="NUL" friendlyPos="True"/>
<inductionLoop id="-101789028#1_det" lane="-101789028#1_0" pos="-5" file="NUL" friendlyPos="True"/>
<inductionLoop id="-101789028#2_det" lane="-101789028#2_0" pos="-5" file="NUL" friendlyPos="True"/>
<inductionLoop id="-101789030_det" lane="-101789030_0" pos="-5" file="NUL" friendlyPos="True"/>
<inductionLoop id="-101789031#0_det" lane="-101789031#0_0" pos="-5" file="NUL" friendlyPos="True"/>
<inductionLoop id="-101789031#1_det" lane="-101789031#1_0" pos="-5" file="NUL" friendlyPos="True"/>
<inductionLoop id="-101789031#2_det" lane="-101789031#2_0" pos="-5" file="NUL" friendlyPos="True"/>
<inductionLoop id="-101789031#3_det" lane="-101789031#3_0" pos="-5" file="NUL" friendlyPos="True"/>
<inductionLoop id="-101789031#4_det" lane="-101789031#4_0" pos="-5" file="NUL" friendlyPos="True"/>
<inductionLoop id="-101789033_det" lane="-101789033_0" pos="-5" file="NUL" friendlyPos="True"/>
<inductionLoop id="-101789034#0_det" lane="-101789034#0_0" pos="-5" file="NUL" friendlyPos="True"/>
<inductionLoop id="-101789034#1_det" lane="-101789034#1_0" pos="-5" file="NUL" friendlyPos="True"/>
<inductionLoop id="-101789042#1_det" lane="-101789042#1_0" pos="-5" file="NUL" friendlyPos="True"/>
<inductionLoop id="-101789042#2_det" lane="-101789042#2_0" pos="-5" file="NUL" friendlyPos="True"/>
<inductionLoop id="-101789048#0_det" lane="-101789048#0_0" pos="-5" file="NUL" friendlyPos="True"/>
<inductionLoop id="-101789048#1_det" lane="-101789048#1_0" pos="-5" file="NUL" friendlyPos="True"/>
<inductionLoop id="-101789048#2_det" lane="-101789048#2_0" pos="-5" file="NUL" friendlyPos="True"/>
<inductionLoop id="-101789048#3_det" lane="-101789048#3_0" pos="-5" file="NUL" friendlyPos="True"/>
<inductionLoop id="-101789048#4_det" lane="-101789048#4_0" pos="-5" file="NUL" friendlyPos="True"/>
<inductionLoop id="-101789048#5_det" lane="-101789048#5_0" pos="-5" file="NUL" friendlyPos="True"/>
<inductionLoop id="-101789049_det" lane="-101789049_0" pos="-5" file="NUL" friendlyPos="True"/>
<inductionLoop id="-101789053#0_det" lane="-101789053#0_0" pos="-5" file="NUL" friendlyPos="True"/>
<inductionLoop id="-101789053#1_det" lane="-101789053#1_0" pos="-5" file="NUL" friendlyPos="True"/>
<inductionLoop id="-101789053#2_det" lane="-101789053#2_0" pos="-5" file="NUL" friendlyPos="True"/>
<inductionLoop id="-101789055#0_det" lane="-101789055#0_0" pos="-5" file="NUL" friendlyPos="True"/>
<inductionLoop id="-101789055#1_det" lane="-101789055#1_0" pos="-5" file="NUL" friendlyPos="True"/>
<inductionLoop id="-101789057#0_det" lane="-101789057#0_0" pos="-5" file="NUL" friendlyPos="True"/>
<inductionLoop id="-101789057#1_det" lane="-101789057#1_0" pos="-5" file="NUL" friendlyPos="True"/>
<inductionLoop id="-101789057#2_det" lane="-101789057#2_0" pos="-5" file="NUL" friendlyPos="True"/>
<inductionLoop id="-101789057#3_det" lane="-101789057#3_0" pos="-5" file="NUL" friendlyPos="True"/>
<inductionLoop id="-101789057#4_det" lane="-101789057#4_0" pos="-5" file="NUL" friendlyPos="True"/>
<inductionLoop id="-101789057#5_det" lane="-101789057#5_0" pos="-5" file="NUL" friendlyPos="True"/>
<inductionLoop id="-101789057#6_det" lane="-101789057#6_0" pos="-5" file="NUL" friendlyPos="True"/>
<inductionLoop id="-101789058#0_det" lane="-101789058#0_0" pos="-5" file="NUL" friendlyPos="True"/>
<inductionLoop id="-101789058#1_det" lane="-101789058#1_0" pos="-5" file="NUL" friendlyPos="True"/>
<inductionLoop id="-101789058#2_det" lane="-101789058#2_0" pos="-5" file="NUL" friendlyPos="True"/>
<inductionLoop id="-101789058#3_det" lane="-101789058#3_0" pos="-5" file="NUL" friendlyPos="True"/>
<inductionLoop id="-101789058#4_det" lane="-101789058#4_0" pos="-5" file="NUL" friendlyPos="True"/>
<inductionLoop id="-101789062#0_det" lane="-101789062#0_0" pos="-5" file="NUL" friendlyPos="True"/>
<inductionLoop id="-101789062#1_det" lane="-101789062#1_0" pos="-5" file="NUL" friendlyPos="True"/>
<inductionLoop id="-101789063#0_det" lane="-101789063#0_0" pos="-5" file="NUL" friendlyPos="True"/>
<inductionLoop id="-101789063#1_det" lane="-101789063#1_0" pos="-5" file="NUL" friendlyPos="True"/>
<inductionLoop id="-101789063#2_det" lane="-101789063#2_0" pos="-5" file="NUL" friendlyPos="True"/>
<inductionLoop id="-101789063#3_det" lane="-101789063#3_0" pos="-5" file="NUL" friendlyPos="True"/>
<inductionLoop id="-101789063#5_det" lane="-101789063#5_0" pos="-5" file="NUL" friendlyPos="True"/>
<inductionLoop id="-101789063#6_det" lane="-101789063#6_0" pos="-5" file="NUL" friendlyPos="True"/>
<inductionLoop id="-101789066#0_det" lane="-101789066#0_0" pos="-5" file="NUL" friendlyPos="True"/>
<inductionLoop id="-101789066#1_det" lane="-101789066#1_0" pos="-5" file="NUL" friendlyPos="True"/>
<inductionLoop id="-101789067#0_det" lane="-101789067#0_0" pos="-5" file="NUL" friendlyPos="True"/>
<inductionLoop id="-101789067#1_det" lane="-101789067#1_0" pos="-5" file="NUL" friendlyPos="True"/>
<inductionLoop id="-101789069#2_det" lane="-101789069#2_0" pos="-5" file="NUL" friendlyPos="True"/>
<inductionLoop id="-101789069#3_det" lane="-101789069#3_0" pos="-5" file="NUL" friendlyPos="True"/>
<inductionLoop id="-101789069#4_det" lane="-101789069#4_0" pos="-5" file="NUL" friendlyPos="True"/>
<inductionLoop id="-101789069#5_det" lane="-101789069#5_0" pos="-5" file="NUL" friendlyPos="True"/>
<inductionLoop id="-101789069#6_det" lane="-101789069#6_0" pos="-5" file="NUL" friendlyPos="True"/>
<inductionLoop id="-101789069#7_det" lane="-101789069#7_0" pos="-5" file="NUL" friendlyPos="True"/>
<inductionLoop id="-101789069#8_det" lane="-101789069#8_0" pos="-5" file="NUL" friendlyPos="True"/>
<inductionLoop id="-101789069#9_det" lane="-101789069#9_0" pos="-5" file="NUL" friendlyPos="True"/>
<inductionLoop id="-101789072_det" lane="-101789072_0" pos="-5" file="NUL" friendlyPos="True"/>
<inductionLoop id="-101789074#0_det" lane="-101789074#0_0" pos="-5" file="NUL" friendlyPos="True"/>
<inductionLoop id="-101789074#1_det" lane="-101789074#1_0" pos="-5" file="NUL" friendlyPos="True"/>
<inductionLoop id="-101789074#2_det" lane="-101789074#2_0" pos="-5" file="NUL" friendlyPos="True"/>
<inductionLoop id="-101789074#4_det" lane="-101789074#4_0" pos="-5" file="NUL" friendlyPos="True"/>
<inductionLoop id="-101789074#5_det" lane="-101789074#5_0" pos="-5" file="NUL" friendlyPos="True"/>
<inductionLoop id="-101789075#0_det" lane="-101789075#0_0" pos="-5" file="NUL" friendlyPos="True"/>
<inductionLoop id="-101789075#1_det" lane="-101789075#1_0" pos="-5" file="NUL" friendlyPos="True"/>
<inductionLoop id="-101789075#2_det" lane="-101789075#2_0" pos="-5" file="NUL" friendlyPos="True"/>
<inductionLoop id="-101789075#3_det" lane="-101789075#3_0" pos="-5" file="NUL" friendlyPos="True"/>
<inductionLoop id="-101789075#4_det" lane="-101789075#4_0" pos="-5" file="NUL" friendlyPos="True"/>
<inductionLoop id="-101789075#5_det" lane="-101789075#5_0" pos="-5" file="NUL" friendlyPos="True"/>
<inductionLoop id="-101789086_det" lane="-101789086_0" pos="-5" file="NUL" friendlyPos="True"/>
<inductionLoop id="-101789088_det" lane="-101789088_0" pos="-5" file="NUL" friendlyPos="True"/>
<inductionLoop id="-101789092_det" lane="-101789092_0" pos="-5" file="NUL" friendlyPos="True"/>
<inductionLoop id="-101789095#0_det" lane="-101789095#0_0" pos="-5" file="NUL" friendlyPos="True"/>
<inductionLoop id="-101789095#1_det" lane="-101789095#1_0" pos="-5" file="NUL" friendlyPos="True"/>
<inductionLoop id="-101789095#2_det" lane="-101789095#2_0" pos="-5" file="NUL" friendlyPos="True"/>
<inductionLoop id="-101789095#3_det" lane="-101789095#3_0" pos="-5" file="NUL" friendlyPos="True"/>
<inductionLoop id="-101789095#4_det" lane="-101789095#4_0" pos="-5" file="NUL" friendlyPos="True"/>
<inductionLoop id="-101789095#5_det" lane="-101789095#5_0" pos="-5" file="NUL" friendlyPos="True"/>
<inductionLoop id="-101789095#6_det" lane="-101789095#6_0" pos="-5" file="NUL" friendlyPos="True"/>
<inductionLoop id="-101789095#7_det" lane="-101789095#7_0" pos="-5" file="NUL" friendlyPos="True"/>
<inductionLoop id="-101789095#8_det" lane="-101789095#8_0" pos="-5" file="NUL" friendlyPos="True"/>
<inductionLoop id="-101789098#0_det" lane="-101789098#0_0" pos="-5" file="NUL" friendlyPos="True"/>
<inductionLoop id="-101789098#1_det" lane="-101789098#1_0" pos="-5" file="NUL" friendlyPos="True"/>
<inductionLoop id="-101789101#0_det" lane="-101789101#0_0" pos="-5" file="NUL" friendlyPos="True"/>
<inductionLoop id="-101789101#1_det" lane="-101789101#1_0" pos="-5" file="NUL" friendlyPos="True"/>
<inductionLoop id="-101789101#2_det" lane="-101789101#2_0" pos="-5" file="NUL" friendlyPos="True"/>
<inductionLoop id="-101789101#3_det" lane="-101789101#3_0" pos="-5" file="NUL" friendlyPos="True"/>
<inductionLoop id="-101789101#4_det" lane="-101789101#4_0" pos="-5" file="NUL" friendlyPos="True"/>
<inductionLoop id="-101789101#5_det" lane="-101789101#5_0" pos="-5" file="NUL" friendlyPos="True"/>
<inductionLoop id="-101789101#6_det" lane="-101789101#6_0" pos="-5" file="NUL" friendlyPos="True"/>
<inductionLoop id="-101789101#8_det" lane="-101789101#8_0" pos="-5" file="NUL" friendlyPos="True"/>
<inductionLoop id="-101789105#1_det" lane="-101789105#1_0" pos="-5" file="NUL" friendlyPos="True"/>
<inductionLoop id="-101789105#2_det" lane="-101789105#2_0" pos="-5" file="NUL" friendlyPos="True"/>
<inductionLoop id="-101789105#3_det" lane="-101789105#3_0" pos="-5" file="NUL" friendlyPos="True"/>
<inductionLoop id="-101789105#4_det" lane="-101789105#4_0" pos="-5" file="NUL" friendlyPos="True"/>
<inductionLoop id="-101789105#5_det" lane="-101789105#5_0" pos="-5" file="NUL" friendlyPos="True"/>
<inductionLoop id="-101789105#6_det" lane="-101789105#6_0" pos="-5" file="NUL" friendlyPos="True"/>
<inductionLoop id="-101789107_det" lane="-101789107_0" pos="-5" file="NUL" friendlyPos="True"/>
<inductionLoop id="-101789108_det" lane="-101789108_0" pos="-5" file="NUL" friendlyPos="True"/>
<inductionLoop id="-101789109#1_det" lane="-101789109#1_0" pos="-5" file="NUL" friendlyPos="True"/>
<inductionLoop id="-101789109#2_det" lane="-101789109#2_0" pos="-5" file="NUL" friendlyPos="True"/>
<inductionLoop id="-101789110#0_det" lane="-101789110#0_0" pos="-5" file="NUL" friendlyPos="True"/>
<inductionLoop id="-101789110#1_det" lane="-101789110#1_0" pos="-5" file="NUL" friendlyPos="True"/>
<inductionLoop id="-101789111#0_det" lane="-101789111#0_0" pos="-5" file="NUL" friendlyPos="True"/>
<inductionLoop id="-101789111#1_det" lane="-101789111#1_0" pos="-5" file="NUL" friendlyPos="True"/>
<inductionLoop id="-101789113_det" lane="-101789113_0" pos="-5" file="NUL" friendlyPos="True"/>
<inductionLoop id="-101789114_det" lane="-101789114_0" pos="-5" file="NUL" friendlyPos="True"/>
<inductionLoop id="-101789118#3_det" lane="-101789118#3_0" pos="-5" file="NUL" friendlyPos="True"/>
<inductionLoop id="-101789118#4_det" lane="-101789118#4_0" pos="-5" file="NUL" friendlyPos="True"/>
<inductionLoop id="-101789118#5_det" lane="-101789118#5_0" pos="-5" file="NUL" friendlyPos="True"/>
<inductionLoop id="-101789118#6_det" lane="-101789118#6_0" pos="-5" file="NUL" friendlyPos="True"/>
<inductionLoop id="-101789121_det" lane="-101789121_0" pos="-5" file="NUL" friendlyPos="True"/>
<inductionLoop id="-101789124_det" lane="-101789124_0" pos="-5" file="NUL" friendlyPos="True"/>
<inductionLoop id="-101789125_det" lane="-101789125_0" pos="-5" file="NUL" friendlyPos="True"/>
<inductionLoop id="-101789131_det" lane="-101789131_0" pos="-5" file="NUL" friendlyPos="True"/>
<inductionLoop id="-101789133#0_det" lane="-101789133#0_0" pos="-5" file="NUL" friendlyPos="True"/>
<inductionLoop id="-101789133#1_det" lane="-101789133#1_0" pos="-5" file="NUL" friendlyPos="True"/>
<inductionLoop id="-101789133#2_det" lane="-101789133#2_0" pos="-5" file="NUL" friendlyPos="True"/>
<inductionLoop id="-101789133#3_det" lane="-101789133#3_0" pos="-5" file="NUL" friendlyPos="True"/>
<inductionLoop id="-101789134#4_det" lane="-101789134#4_0" pos="-5" file="NUL" friendlyPos="True"/>
<inductionLoop id="-101789134#5_det" lane="-101789134#5_0" pos="-5" file="NUL" friendlyPos="True"/>
<inductionLoop id="-101789134#6_det" lane="-101789134#6_0" pos="-5" file="NUL" friendlyPos="True"/>
<inductionLoop id="-101789134#7_det" lane="-101789134#7_0" pos="-5" file="NUL" friendlyPos="True"/>
<inductionLoop id="-101789134#8_det" lane="-101789134#8_0" pos="-5" file="NUL" friendlyPos="True"/>
<inductionLoop id="-101789135_det" lane="-101789135_0" pos="-5" file="NUL" friendlyPos="True"/>
<inductionLoop id="-101789138_det" lane="-101789138_0" pos="-5" file="NUL" friendlyPos="True"/>
<inductionLoop id="-101789139#0_det" lane="-101789139#0_0" pos="-5" file="NUL" friendlyPos="True"/>
<inductionLoop id="-101789139#1_det" lane="-101789139#1_0" pos="-5" file="NUL" friendlyPos="True"/>
<inductionLoop id="-101789139#2_det" lane="-101789139#2_0" pos="-5" file="NUL" friendlyPos="True"/>
<inductionLoop id="-101789139#3_det" lane="-101789139#3_0" pos="-5" file="NUL" friendlyPos="True"/>
<inductionLoop id="-101789139#4_det" lane="-101789139#4_0" pos="-5" file="NUL" friendlyPos="True"/>
<inductionLoop id="-101789139#5_det" lane="-101789139#5_0" pos="-5" file="NUL" friendlyPos="True"/>
<inductionLoop id="-101789139#6_det" lane="-101789139#6_0" pos="-5" file="NUL" friendlyPos="True"/>
<inductionLoop id="-101789139#7_det" lane="-101789139#7_0" pos="-5" file="NUL" friendlyPos="True"/>
<inductionLoop id="-101789139#8_det" lane="-101789139#8_0" pos="-5" file="NUL" friendlyPos="True"/>
<inductionLoop id="-101789140_det" lane="-101789140_0" pos="-5" file="NUL" friendlyPos="True"/>
<inductionLoop id="-101789143#0_det" lane="-101789143#0_0" pos="-5" file="NUL" friendlyPos="True"/>
<inductionLoop id="-101789143#1_det" lane="-101789143#1_0" pos="-5" file="NUL" friendlyPos="True"/>
<inductionLoop id="-101789146_det" lane="-101789146_0" pos="-5" file="NUL" friendlyPos="True"/>
<inductionLoop id="-101789157_det" lane="-101789157_0" pos="-5" file="NUL" friendlyPos="True"/>
<inductionLoop id="-101789162#0_det" lane="-101789162#0_0" pos="-5" file="NUL" friendlyPos="True"/>
<inductionLoop id="-101789162#1_det" lane="-101789162#1_0" pos="-5" file="NUL" friendlyPos="True"/>
<inductionLoop id="-101789162#2_det" lane="-101789162#2_0" pos="-5" file="NUL" friendlyPos="True"/>
<inductionLoop id="-101789164_det" lane="-101789164_0" pos="-5" file="NUL" friendlyPos="True"/>
<inductionLoop id="-101789165#0_det" lane="-101789165#0_0" pos="-5" file="NUL" friendlyPos="True"/>
<inductionLoop id="-101789165#1_det" lane="-101789165#1_0" pos="-5" file="NUL" friendlyPos="True"/>
<inductionLoop id="-101789176_det" lane="-101789176_0" pos="-5" file="NUL" friendlyPos="True"/>
<inductionLoop id="-101789186_det" lane="-101789186_0" pos="-5" file="NUL" friendlyPos="True"/>
<inductionLoop id="-101789195_det" lane="-101789195_0" pos="-5" file="NUL" friendlyPos="True"/>
<inductionLoop id="-101789201#1_det" lane="-101789201#1_0" pos="-5" file="NUL" friendlyPos="True"/>
<inductionLoop id="-101789211_det" lane="-101789211_0" pos="-5" file="NUL" friendlyPos="True"/>
<inductionLoop id="-101789213#0_det" lane="-101789213#0_0" pos="-5" file="NUL" friendlyPos="True"/>
<inductionLoop id="-101789215#0_det" lane="-101789215#0_0" pos="-5" file="NUL" friendlyPos="True"/>
<inductionLoop id="-101789215#1_det" lane="-101789215#1_0" pos="-5" file="NUL" friendlyPos="True"/>
<inductionLoop id="-101789215#2_det" lane="-101789215#2_0" pos="-5" file="NUL" friendlyPos="True"/>
<inductionLoop id="-101789215#3_det" lane="-101789215#3_0" pos="-5" file="NUL" friendlyPos="True"/>
<inductionLoop id="-101789215#4_det" lane="-101789215#4_0" pos="-5" file="NUL" friendlyPos="True"/>
<inductionLoop id="-101789215#5_det" lane="-101789215#5_0" pos="-5" file="NUL" friendlyPos="True"/>
<inductionLoop id="-101789215#6_det" lane="-101789215#6_0" pos="-5" file="NUL" friendlyPos="True"/>
<inductionLoop id="-101789218_det" lane="-101789218_0" pos="-5" file="NUL" friendlyPos="True"/>
<inductionLoop id="-101789221_det" lane="-101789221_0" pos="-5" file="NUL" friendlyPos="True"/>
<inductionLoop id="-101789223_det" lane="-101789223_0" pos="-5" file="NUL" friendlyPos="True"/>
<inductionLoop id="-101789224#0_det" lane="-101789224#0_0" pos="-5" file="NUL" friendlyPos="True"/>
<inductionLoop id="-101789224#1_det" lane="-101789224#1_0" pos="-5" file="NUL" friendlyPos="True"/>
<inductionLoop id="-101789224#2_det" lane="-101789224#2_0" pos="-5" file="NUL" friendlyPos="True"/>
<inductionLoop id="-101789224#3_det" lane="-101789224#3_0" pos="-5" file="NUL" friendlyPos="True"/>
<inductionLoop id="-101789226#0_det" lane="-101789226#0_0" pos="-5" file="NUL" friendlyPos="True"/>
<inductionLoop id="-101789226#1_det" lane="-101789226#1_0" pos="-5" file="NUL" friendlyPos="True"/>
<inductionLoop id="-101789226#2_det" lane="-101789226#2_0" pos="-5" file="NUL" friendlyPos="True"/>
<inductionLoop id="-101789226#3_det" lane="-101789226#3_0" pos="-5" file="NUL" friendlyPos="True"/>
<inductionLoop id="-101789226#4_det" lane="-101789226#4_0" pos="-5" file="NUL" friendlyPos="True"/>
<inductionLoop id="-101789226#5_det" lane="-101789226#5_0" pos="-5" file="NUL" friendlyPos="True"/>
<inductionLoop id="-101789229#0_det" lane="-101789229#0_0" pos="-5" file="NUL" friendlyPos="True"/>
<inductionLoop id="-101789229#1_det" lane="-101789229#1_0" pos="-5" file="NUL" friendlyPos="True"/>
<inductionLoop id="-101789229#2_det" lane="-101789229#2_0" pos="-5" file="NUL" friendlyPos="True"/>
<inductionLoop id="-101789229#3_det" lane="-101789229#3_0" pos="-5" file="NUL" friendlyPos="True"/>
<inductionLoop id="-101791126#0_det" lane="-101791126#0_0" pos="-5" file="NUL" friendlyPos="True"/>
<inductionLoop id="-101791126#1_det" lane="-101791126#1_0" pos="-5" file="NUL" friendlyPos="True"/>
<inductionLoop id="-101791143#0_det" lane="-101791143#0_0" pos="-5" file="NUL" friendlyPos="True"/>
<inductionLoop id="-101791143#1_det" lane="-101791143#1_0" pos="-5" file="NUL" friendlyPos="True"/>
<inductionLoop id="-101791143#2_det" lane="-101791143#2_0" pos="-5" file="NUL" friendlyPos="True"/>
<inductionLoop id="-101791147_det" lane="-101791147_0" pos="-5" file="NUL" friendlyPos="True"/>
<inductionLoop id="-101791149#0_det" lane="-101791149#0_0" pos="-5" file="NUL" friendlyPos="True"/>
<inductionLoop id="-101791149#1_det" lane="-101791149#1_0" pos="-5" file="NUL" friendlyPos="True"/>
<inductionLoop id="-101791149#2_det" lane="-101791149#2_0" pos="-5" file="NUL" friendlyPos="True"/>
<inductionLoop id="-101791150#0_det" lane="-101791150#0_0" pos="-5" file="NUL" friendlyPos="True"/>
<inductionLoop id="-101791154_det" lane="-101791154_0" pos="-5" file="NUL" friendlyPos="True"/>
<inductionLoop id="-101791162#0_det" lane="-101791162#0_0" pos="-5" file="NUL" friendlyPos="True"/>
<inductionLoop id="-101791162#1_det" lane="-101791162#1_0" pos="-5" file="NUL" friendlyPos="True"/>
<inductionLoop id="-101791172#0_det" lane="-101791172#0_0" pos="-5" file="NUL" friendlyPos="True"/>
<inductionLoop id="-101791172#5_det" lane="-101791172#5_0" pos="-5" file="NUL" friendlyPos="True"/>
<inductionLoop id="-101791174#0_det" lane="-101791174#0_0" pos="-5" file="NUL" friendlyPos="True"/>
<inductionLoop id="-101791174#1_det" lane="-101791174#1_0" pos="-5" file="NUL" friendlyPos="True"/>
<inductionLoop id="-101806576_det" lane="-101806576_0" pos="-5" file="NUL" friendlyPos="True"/>
<inductionLoop id="-101806578_det" lane="-101806578_0" pos="-5" file="NUL" friendlyPos="True"/>
<inductionLoop id="-101806591_det" lane="-101806591_0" pos="-5" file="NUL" friendlyPos="True"/>
<inductionLoop id="-101806593#0_det" lane="-101806593#0_0" pos="-5" file="NUL" friendlyPos="True"/>
<inductionLoop id="-101806593#1_det" lane="-101806593#1_0" pos="-5" file="NUL" friendlyPos="True"/>
<inductionLoop id="-101806593#2_det" lane="-101806593#2_0" pos="-5" file="NUL" friendlyPos="True"/>
<inductionLoop id="-101806596#0_det" lane="-101806596#0_0" pos="-5" file="NUL" friendlyPos="True"/>
<inductionLoop id="-101806596#1_det" lane="-101806596#1_0" pos="-5" file="NUL" friendlyPos="True"/>
<inductionLoop id="-101806600_det" lane="-101806600_0" pos="-5" file="NUL" friendlyPos="True"/>
<inductionLoop id="-101806605#0_det" lane="-101806605#0_0" pos="-5" file="NUL" friendlyPos="True"/>
<inductionLoop id="-101806605#1_det" lane="-101806605#1_0" pos="-5" file="NUL" friendlyPos="True"/>
<inductionLoop id="-101806617_det" lane="-101806617_0" pos="-5" file="NUL" friendlyPos="True"/>
<inductionLoop id="-101806625_det" lane="-101806625_0" pos="-5" file="NUL" friendlyPos="True"/>
<inductionLoop id="-101806630_det" lane="-101806630_0" pos="-5" file="NUL" friendlyPos="True"/>
<inductionLoop id="-101807571#0_det" lane="-101807571#0_0" pos="-5" file="NUL" friendlyPos="True"/>
<inductionLoop id="-101807571#1_det" lane="-101807571#1_0" pos="-5" file="NUL" friendlyPos="True"/>
<inductionLoop id="-101807571#2_det" lane="-101807571#2_0" pos="-5" file="NUL" friendlyPos="True"/>
<inductionLoop id="-101807572#0_det" lane="-101807572#0_0" pos="-5" file="NUL" friendlyPos="True"/>
<inductionLoop id="-101807572#1_det" lane="-101807572#1_0" pos="-5" file="NUL" friendlyPos="True"/>
<inductionLoop id="-101807572#2_det" lane="-101807572#2_0" pos="-5" file="NUL" friendlyPos="True"/>
<inductionLoop id="-101807573_det" lane="-101807573_0" pos="-5" file="NUL" friendlyPos="True"/>
<inductionLoop id="-101807575#0_det" lane="-101807575#0_0" pos="-5" file="NUL" friendlyPos="True"/>
<inductionLoop id="-101807575#1_det" lane="-101807575#1_0" pos="-5" file="NUL" friendlyPos="True"/>
<inductionLoop id="-101807576#0_det" lane="-101807576#0_0" pos="-5" file="NUL" friendlyPos="True"/>
<inductionLoop id="-101807576#1_det" lane="-101807576#1_0" pos="-5" file="NUL" friendlyPos="True"/>
<inductionLoop id="-101807578#0_det" lane="-101807578#0_0" pos="-5" file="NUL" friendlyPos="True"/>
<inductionLoop id="-101807578#1_det" lane="-101807578#1_0" pos="-5" file="NUL" friendlyPos="True"/>
<inductionLoop id="-101807579_det" lane="-101807579_0" pos="-5" file="NUL" friendlyPos="True"/>
<inductionLoop id="-101807580#0_det" lane="-101807580#0_0" pos="-5" file="NUL" friendlyPos="True"/>
<inductionLoop id="-101807580#1_det" lane="-101807580#1_0" pos="-5" file="NUL" friendlyPos="True"/>
<inductionLoop id="-103422838#0_det" lane="-103422838#0_0" pos="-5" file="NUL" friendlyPos="True"/>
<inductionLoop id="-103422838#1_det" lane="-103422838#1_0" pos="-5" file="NUL" friendlyPos="True"/>
<inductionLoop id="-103422838#2_det" lane="-103422838#2_0" pos="-5" file="NUL" friendlyPos="True"/>
<inductionLoop id="-103422838#3_det" lane="-103422838#3_0" pos="-5" file="NUL" friendlyPos="True"/>
<inductionLoop id="-103422838#4_det" lane="-103422838#4_0" pos="-5" file="NUL" friendlyPos="True"/>
<inductionLoop id="-103422838#5_det" lane="-103422838#5_0" pos="-5" file="NUL" friendlyPos="True"/>
<inductionLoop id="-103422838#6_det" lane="-103422838#6_0" pos="-5" file="NUL" friendlyPos="True"/>
<inductionLoop id="-103422838#7_det" lane="-103422838#7_0" pos="-5" file="NUL" friendlyPos="True"/>
<inductionLoop id="-103422838#8_det" lane="-103422838#8_0" pos="-5" file="NUL" friendlyPos="True"/>
<inductionLoop id="-103422838#9_det" lane="-103422838#9_0" pos="-5" file="NUL" friendlyPos="True"/>
<inductionLoop id="-103422839#0_det" lane="-103422839#0_0" pos="-5" file="NUL" friendlyPos="True"/>
<inductionLoop id="-103422845_det" lane="-103422845_0" pos="-5" file="NUL" friendlyPos="True"/>
<inductionLoop id="-103422848_det" lane="-103422848_0" pos="-5" file="NUL" friendlyPos="True"/>
<inductionLoop id="-103422849#0_det" lane="-103422849#0_0" pos="-5" file="NUL" friendlyPos="True"/>
<inductionLoop id="-103422849#1_det" lane="-103422849#1_0" pos="-5" file="NUL" friendlyPos="True"/>
<inductionLoop id="-103422849#2_det" lane="-103422849#2_0" pos="-5" file="NUL" friendlyPos="True"/>
<inductionLoop id="-103422849#3_det" lane="-103422849#3_0" pos="-5" file="NUL" friendlyPos="True"/>
<inductionLoop id="-103422850_det" lane="-103422850_0" pos="-5" file="NUL" friendlyPos="True"/>
<inductionLoop id="-103422851#1_det" lane="-103422851#1_0" pos="-5" file="NUL" friendlyPos="True"/>
<inductionLoop id="-103422851#2_det" lane="-103422851#2_0" pos="-5" file="NUL" friendlyPos="True"/>
<inductionLoop id="-103422851#3_det" lane="-103422851#3_0" pos="-5" file="NUL" friendlyPos="True"/>
<inductionLoop id="-103422856#0_det" lane="-103422856#0_0" pos="-5" file="NUL" friendlyPos="True"/>
<inductionLoop id="-103422856#1_det" lane="-103422856#1_0" pos="-5" file="NUL" friendlyPos="True"/>
<inductionLoop id="-103422856#2_det" lane="-103422856#2_0" pos="-5" file="NUL" friendlyPos="True"/>
<inductionLoop id="-103422856#3_det" lane="-103422856#3_0" pos="-5" file="NUL" friendlyPos="True"/>
<inductionLoop id="-103422858_det" lane="-103422858_0" pos="-5" file="NUL" friendlyPos="True"/>
<inductionLoop id="-103422859#0_det" lane="-103422859#0_0" pos="-5" file="NUL" friendlyPos="True"/>
<inductionLoop id="-103422859#1_det" lane="-103422859#1_0" pos="-5" file="NUL" friendlyPos="True"/>
<inductionLoop id="-103422859#2_det" lane="-103422859#2_0" pos="-5" file="NUL" friendlyPos="True"/>
<inductionLoop id="-103422860#0_det" lane="-103422860#0_0" pos="-5" file="NUL" friendlyPos="True"/>
<inductionLoop id="-103422860#1_det" lane="-103422860#1_0" pos="-5" file="NUL" friendlyPos="True"/>
<inductionLoop id="-103422860#2_det" lane="-103422860#2_0" pos="-5" file="NUL" friendlyPos="True"/>
<inductionLoop id="-103422860#3_det" lane="-103422860#3_0" pos="-5" file="NUL" friendlyPos="True"/>
<inductionLoop id="-103422860#4_det" lane="-103422860#4_0" pos="-5" file="NUL" friendlyPos="True"/>
<inductionLoop id="-103422860#5_det" lane="-103422860#5_0" pos="-5" file="NUL" friendlyPos="True"/>
<inductionLoop id="-103422860#6_det" lane="-103422860#6_0" pos="-5" file="NUL" friendlyPos="True"/>
<inductionLoop id="-103422861_det" lane="-103422861_0" pos="-5" file="NUL" friendlyPos="True"/>
<inductionLoop id="-103422862_det" lane="-103422862_0" pos="-5" file="NUL" friendlyPos="True"/>
<inductionLoop id="-103422863#0_det" lane="-103422863#0_0" pos="-5" file="NUL" friendlyPos="True"/>
<inductionLoop id="-103422863#1_det" lane="-103422863#1_0" pos="-5" file="NUL" friendlyPos="True"/>
<inductionLoop id="-103422863#2_det" lane="-103422863#2_0" pos="-5" file="NUL" friendlyPos="True"/>
<inductionLoop id="-103422863#3_det" lane="-103422863#3_0" pos="-5" file="NUL" friendlyPos="True"/>
<inductionLoop id="-103422863#4_det" lane="-103422863#4_0" pos="-5" file="NUL" friendlyPos="True"/>
<inductionLoop id="-103422865#0_det" lane="-103422865#0_0" pos="-5" file="NUL" friendlyPos="True"/>
<inductionLoop id="-103422866#0_det" lane="-103422866#0_0" pos="-5" file="NUL" friendlyPos="True"/>
<inductionLoop id="-103422866#1_det" lane="-103422866#1_0" pos="-5" file="NUL" friendlyPos="True"/>
<inductionLoop id="-103422867_det" lane="-103422867_0" pos="-5" file="NUL" friendlyPos="True"/>
<inductionLoop id="-103422868_det" lane="-103422868_0" pos="-5" file="NUL" friendlyPos="True"/>
<inductionLoop id="-103422869_det" lane="-103422869_0" pos="-5" file="NUL" friendlyPos="True"/>
<inductionLoop id="-103422870_det" lane="-103422870_0" pos="-5" file="NUL" friendlyPos="True"/>
<inductionLoop id="-103422872_det" lane="-103422872_0" pos="-5" file="NUL" friendlyPos="True"/>
<inductionLoop id="-103422876#0_det" lane="-103422876#0_0" pos="-5" file="NUL" friendlyPos="True"/>
<inductionLoop id="-103422876#1_det" lane="-103422876#1_0" pos="-5" file="NUL" friendlyPos="True"/>
<inductionLoop id="-103422877#0_det" lane="-103422877#0_0" pos="-5" file="NUL" friendlyPos="True"/>
<inductionLoop id="-103422877#1_det" lane="-103422877#1_0" pos="-5" file="NUL" friendlyPos="True"/>
<inductionLoop id="-103422877#2_det" lane="-103422877#2_0" pos="-5" file="NUL" friendlyPos="True"/>
<inductionLoop id="-103422878#0_det" lane="-103422878#0_0" pos="-5" file="NUL" friendlyPos="True"/>
<inductionLoop id="-103422878#1_det" lane="-103422878#1_0" pos="-5" file="NUL" friendlyPos="True"/>
<inductionLoop id="-103422878#2_det" lane="-103422878#2_0" pos="-5" file="NUL" friendlyPos="True"/>
<inductionLoop id="-103422878#3_det" lane="-103422878#3_0" pos="-5" file="NUL" friendlyPos="True"/>
<inductionLoop id="-103422878#4_det" lane="-103422878#4_0" pos="-5" file="NUL" friendlyPos="True"/>
<inductionLoop id="-103422878#5_det" lane="-103422878#5_0" pos="-5" file="NUL" friendlyPos="True"/>
<inductionLoop id="-103422878#6_det" lane="-103422878#6_0" pos="-5" file="NUL" friendlyPos="True"/>
<inductionLoop id="-103422880_det" lane="-103422880_0" pos="-5" file="NUL" friendlyPos="True"/>
<inductionLoop id="-103422884#0_det" lane="-103422884#0_0" pos="-5" file="NUL" friendlyPos="True"/>
<inductionLoop id="-103422884#1_det" lane="-103422884#1_0" pos="-5" file="NUL" friendlyPos="True"/>
<inductionLoop id="-103422884#2_det" lane="-103422884#2_0" pos="-5" file="NUL" friendlyPos="True"/>
<inductionLoop id="-103422884#3_det" lane="-103422884#3_0" pos="-5" file="NUL" friendlyPos="True"/>
<inductionLoop id="-103422886#0_det" lane="-103422886#0_0" pos="-5" file="NUL" friendlyPos="True"/>
<inductionLoop id="-103422886#1_det" lane="-103422886#1_0" pos="-5" file="NUL" friendlyPos="True"/>
<inductionLoop id="-103422886#2_det" lane="-103422886#2_0" pos="-5" file="NUL" friendlyPos="True"/>
<inductionLoop id="-103422889#0_det" lane="-103422889#0_0" pos="-5" file="NUL" friendlyPos="True"/>