<routes>
<vType id="Human" color="red" guiShape="passenger/sedan"/>
<vType id="AV" color="yellow"/>
<route id="0_0_0" edges="
80733788#0 -80733788#0 -101789058#4 -101789058#3 101789117#0 101789117#1 986733130 101789127#0 101789127#1 698085348#4 698085348#5 197922720#0 197922720#1 813070235 -352043735#0 -103422838#9 -103422838#8 -103422838#7 -103422838#6 -103422838#5 -103422838#4 -103422838#3 -103422838#2 -103422861 964083525#2 103424641#0 103424641#1 -103422889#2 -103422889#1 -103422889#0 -103422876#1 -103422876#0 -272554973#2 -272554973#1 -272554973#0 -38785911#2 -38785911#1 -38785911#0 103422881#0 103422881#1 42190730 -42190730
" />
<route id="0_0_1" edges="
80733788#0 -80733788#0 197922721 252857979#0 252857979#1 252857979#2 986733130 101789127#0 101789127#1 698085348#4 698085348#5 197922720#0 197922720#1 813070235 -352043735#0 -103422838#9 -103422838#8 -103422838#7 -103422838#6 -103422838#5 -103422838#4 -103422838#3 -103422838#2 -103422861 964083525#2 103424641#0 103424641#1 -103422889#2 -103422889#1 -103422889#0 -103422876#1 -103422876#0 -272554973#2 -272554973#1 -272554973#0 -38785911#2 -38785911#1 -38785911#0 103422881#0 103422881#1 42190730 -42190730
" />
<route id="0_0_2" edges="
80733788#0 -80733788#0 197922721 252857979#0 252857979#1 252857979#2 986733130 101789127#0 101789127#1 698085348#4 698085348#5 197922720#0 197922720#1 813070235 -352043735#0 -103422838#9 -103422838#8 -103422838#7 -103422838#6 -103422838#5 -103422838#4 -103422838#3 -103422838#2 -103422861 964083525#2 103424641#0 103424641#1 -103422889#2 -103422889#1 -103422889#0 -103422876#1 -103422876#0 -272554973#2 -272554973#1 -272554973#0 -38785911#2 38785911#2 38785911#3 272554973#1 272554973#2 103422876#0 103422876#1 -230346651 -813632717#0 -298358358 220245926#2 -220245945 220245947#3 220245947#1 220245939 -953231001 103422881#3 103422881#0 103422881#1 42190730 -42190730
" />
<route id="0_0_3" edges="
80733788#0 -80733788#0 197922721 252857979#0 252857979#1 252857979#2 986733130 101789127#0 101789127#1 698085348#4 698085348#5 197922720#0 197922720#1 813070235 -352043735#0 -103422838#9 -103422838#8 -103424639 103424639 -103422838#7 -103422838#6 -103422838#5 -103422838#4 -103422838#3 -103422838#2 -103422861 964083525#2 103424641#0 103424641#1 -103422889#2 -103422889#1 -103422889#0 -103422876#1 -103422876#0 -272554973#2 -272554973#1 -272554973#0 -38785911#2 -38785911#1 -38785911#0 103422881#0 103422881#1 42190730 -42190730
" />
<route id="0_1_0" edges="
80733788#0 -80733788#0 -101789058#4 -101789058#3 -101789058#2 -101789058#1 -101789058#0 943798929#0 943798929#1 943798929#2 101791115#0 -168022243#2 -168022243#1 -168022243#0 -101791149#2 -101791149#1 -101791149#0 -221452293#5 -221452293#4 101791155 -949298418#0 -101791154 -101791162#1 -101791147 101791138#2 101789139#1 101789139#2 101789139#3 101789139#4 101789139#5 101789139#6 101789139#7 101789030 -101789069#6 -101789069#5 -101789069#4 -101789069#3
" />
<route id="0_1_1" edges="
80733788#0 -80733788#0 -101789058#4 -101789058#3 -101789058#2 -101789058#1 -101789058#0 943798929#0 943798929#1 943798929#2 101791115#0 -168022243#2 -168022243#1 -168022243#0 -101791149#2 -101791149#1 -101791149#0 -221452293#5 -221452293#4 -221452293#3 -221452293#2 -221452293#1 -221452293#0 101789139#0 101789139#1 101789139#2 101789139#3 101789139#4 101789139#5 101789139#6 101789139#7 101789030 -101789069#6 -101789069#5 -101789069#4 -101789069#3
" />
<route id="0_1_2" edges="
80733788#0 -80733788#0 -101789058#4 -101789058#3 -101789058#2 -101789058#1 -101789058#0 943798929#0 943798929#1 943798929#2 101791115#0 -168022243#2 -168022243#1 -168022243#0 -101791149#2 -101791149#1 -101791149#0 -221452293#5 -221452293#4 -221452293#3 -221452293#2 -221452293#1 -221452293#0 101789139#0 101789139#1 101789139#2 101789139#3 -101806617 -101789118#5 -101789118#4 -101789118#3 -101789139#8 101789030 -101789069#6 -101789069#5 -101789069#4 -101789069#3
" />
<route id="0_1_3" edges="
80733788#0 -80733788#0 -101789058#4 -101789058#3 101789117#0 -101806596#1 -101806596#0 101806643#1 101806643#2 943798929#1 943798929#2 101791115#0 -168022243#2 -168022243#1 -168022243#0 -101791149#2 -101791149#1 -101791149#0 -221452293#5 -221452293#4 -221452293#3 -221452293#2 -221452293#1 -221452293#0 101789139#0 101789139#1 101789139#2 101789139#3 101789139#4 101789139#5 101789139#6 101789139#7 101789030 -101789069#6 -101789069#5 -101789069#4 -101789069#3
" />
<route id="0_43_0" edges="
80733788#0 -80733788#0 -101789058#4 -101789058#3 101789117#0 101789117#1 986733130 101789127#0 101789127#1 698085348#4 698085348#5 197922720#0 197922720#1 813070235 -352043735#0 -103422838#9 -103422838#8 -103422838#7 -103422838#6 -103422838#5 -103422838#4 -103422838#3 -103422838#2 103422895#0 103422895#1 103422895#2 -95974191#0
" />
<route id="0_43_1" edges="
80733788#0 -80733788#0 197922721 252857979#0 252857979#1 252857979#2 986733130 101789127#0 101789127#1 698085348#4 698085348#5 197922720#0 197922720#1 813070235 -352043735#0 -103422838#9 -103422838#8 -103422838#7 -103422838#6 -103422838#5 -103422838#4 -103422838#3 -103422838#2 103422895#0 103422895#1 103422895#2 -95974191#0
" />
<route id="0_43_2" edges="
80733788#0 -80733788#0 -101789058#4 -101789058#3 101789117#0 101789117#1 986733130 101789127#0 101789127#1 698085348#4 698085348#5 197922720#0 197922720#1 813070235 -352043735#0 -103422838#9 -103422838#8 -103424639 103424639 -103422838#7 -103422838#6 -103422838#5 -103422838#4 -103422838#3 -103422838#2 103422895#0 103422895#1 103422895#2 -95974191#0
" />
<route id="0_43_3" edges="
80733788#0 -80733788#0 197922721 -197922721 -101789058#4 -101789058#3 101789117#0 101789117#1 986733130 101789127#0 101789127#1 698085348#4 698085348#5 197922720#0 197922720#1 813070235 -352043735#0 -103422838#9 -103422838#8 -103422838#7 -103422838#6 -103422838#5 -103422838#4 -103422838#3 -103422838#2 103422895#0 103422895#1 103422895#2 -95974191#0
" />
<route id="0_44_0" edges="
80733788#0 -80733788#0 -101789058#4 -101789058#3 101789117#0 101789117#1 986733130 101789127#0 101789127#1 698085348#4 698085348#5 197922720#0 197922720#1 -197922720#1
" />
<route id="0_44_1" edges="
80733788#0 -80733788#0 197922721 252857979#0 252857979#1 252857979#2 986733130 101789127#0 101789127#1 698085348#4 698085348#5 197922720#0 197922720#1 -197922720#1
" />
<route id="0_44_2" edges="
80733788#0 -80733788#0 197922721 252857979#0 252857979#1 252857979#2 986733130 101789127#0 986733131 -986733131 101789127#1 698085348#4 698085348#5 197922720#0 197922720#1 -197922720#1
" />
<route id="0_44_3" edges="
80733788#0 -80733788#0 197922721 252857979#0 252857979#1 252857979#2 986733130 101789127#0 101789127#1 698085348#4 698085348#5 -101789086 1209842903#2 197922720#0 197922720#1 -197922720#1
" />
<route id="0_84_0" edges="
80733788#0 -80733788#0 -101789058#4 -101789058#3 101789117#0 101789117#1 986733130 101789127#0 101789127#1 698085348#4 698085348#5 197922720#0 197922720#1 813070235 -352043735#0 -103422838#9 -103422838#8 -103422838#7 -103422838#6 -103422838#5 -103422838#4 -103422838#3 -103422838#2 -103422838#1 -103422838#0 -95974191#6 -95974191#5
" />
<route id="0_84_1" edges="
80733788#0 -80733788#0 197922721 252857979#0 252857979#1 252857979#2 986733130 101789127#0 101789127#1 698085348#4 698085348#5 197922720#0 197922720#1 813070235 -352043735#0 -103422838#9 -103422838#8 -103422838#7 -103422838#6 -103422838#5 -103422838#4 -103422838#3 -103422838#2 -103422838#1 -103422838#0 -95974191#6 -95974191#5
" />
<route id="0_84_2" edges="
80733788#0 -80733788#0 -101789058#4 -101789058#3 101789117#0 101789117#1 986733130 101789127#0 101789127#1 698085348#4 698085348#5 197922720#0 197922720#1 813070235 -352043735#0 -103422838#9 -103422838#8 -103424639 103424639 -103422838#7 -103422838#6 -103422838#5 -103422838#4 -103422838#3 -103422838#2 -103422838#1 -103422838#0 -95974191#6 -95974191#5
" />
<route id="0_84_3" edges="
80733788#0 -80733788#0 197922721 -197922721 -101789058#4 -101789058#3 101789117#0 101789117#1 986733130 101789127#0 101789127#1 698085348#4 698085348#5 197922720#0 197922720#1 813070235 -352043735#0 -103422838#9 -103422838#8 -103422838#7 -103422838#6 -103422838#5 -103422838#4 -103422838#3 -103422838#2 -103422838#1 -103422838#0 -95974191#6 -95974191#5
" />
<route id="0_151_0" edges="
80733788#0 -80733788#0 -101789058#4 -101789058#3 -101789058#2 -101789058#1 -101789058#0 943798929#0 943798929#1 943798929#2 101791115#0 101791115#1 101791115#2 101791115#3 101791115#4 101791115#5 101791115#6 -159965377#2 -159965377#1
" />
<route id="0_151_1" edges="
80733788#0 -80733788#0 -101789058#4 -101789058#3 101789117#0 -101806596#1 -101806596#0 101806643#1 101806643#2 943798929#1 943798929#2 101791115#0 101791115#1 101791115#2 101791115#3 101791115#4 101791115#5 101791115#6 -159965377#2 -159965377#1
" />
<route id="0_151_2" edges="
80733788#0 80733788#1 -80733788#1 -80733788#0 -101789058#4 -101789058#3 -101789058#2 -101789058#1 -101789058#0 943798929#0 943798929#1 943798929#2 101791115#0 101791115#1 101791115#2 101791115#3 101791115#4 101791115#5 101791115#6 -159965377#2 -159965377#1
" />
<route id="0_151_3" edges="
80733788#0 -80733788#0 -101789058#4 -101789058#3 -101789058#2 101789058#2 101789117#0 -101806596#1 -101806596#0 101806643#1 101806643#2 943798929#1 943798929#2 101791115#0 101791115#1 101791115#2 101791115#3 101791115#4 101791115#5 101791115#6 -159965377#2 -159965377#1
" />
<route id="1_2_0" edges="
-168022243#1 -168022243#0 168022243#0 168022243#1 168022243#2 101791115#1 101791115#2 101791115#3 101791123 101789058#1 101789058#2 101789117#0 101789117#1 986733130 101789127#0 101789127#1 698085348#4 698085348#5 197922720#0 197922720#1 813070235 -352043735#0 -103422838#9 -103422838#8 -103422838#7 -103422838#6 -103422838#5 -103422838#4 -103422838#3 -103422838#2 -103422838#1 -103422838#0 208311530#0 208311530#1 208311530#2 208312010 625541249#2 103422868 -103422878#2
" />
<route id="1_2_1" edges="
-168022243#1 -168022243#0 168022243#0 168022243#1 168022243#2 101791115#1 101791115#2 101791115#3 101791123 101789058#1 101789058#2 101789117#0 101789117#1 986733130 101789127#0 101789127#1 698085348#4 698085348#5 197922720#0 197922720#1 813070235 -352043735#0 -103422838#9 -103422838#8 -103422838#7 -103422838#6 -103422838#5 -103422838#4 -103422838#3 -103422838#2 -103422838#1 -103422838#0 208311530#0 103422847 103422854#2 625541249#1 625541249#2 103422868 -103422878#2
" />
<route id="1_2_2" edges="
-168022243#1 -168022243#0 168022243#0 168022243#1 168022243#2 101791115#1 101791115#2 101791115#3 101791123 101789058#1 101789058#2 101789117#0 101789117#1 986733130 101789127#0 101789127#1 698085348#4 698085348#5 197922720#0 197922720#1 813070235 -352043735#0 -103422838#9 -103422838#8 -103422838#7 -103422838#6 -103422838#5 -103422838#4 -103422838#3 -103422838#2 -103422838#1 -103422838#0 208311530#0 208311530#1 208311530#2 -103422878#6 -103422878#5 -103422878#4 -103422878#3 -103422878#2
" />
<route id="1_2_3" edges="
-168022243#1 -168022243#0 168022243#0 168022243#1 168022243#2 101791115#1 101791115#2 101791115#3 101791123 101789058#1 101789058#2 101789117#0 101789117#1 986733130 101789127#0 101789127#1 698085348#4 698085348#5 197922720#0 197922720#1 813070235 -352043735#0 -103422838#9 -103422838#8 -103422838#7 -103422838#6 -103422838#5 -103422838#4 -103422838#3 -103422838#2 -103422838#1 -103422838#0 208311530#0 208311530#1 208311530#2 -103422878#6 103422878#6 208312010 625541249#2 103422868 -103422878#2
" />
<route id="2_3_0" edges="
-95974191#0 83053807#3 83053807#0 83053807#1 83053807#2 95974191#0 95974191#1 95974191#2 95974191#3 95974191#4 95974191#5 95974191#6 103422838#0 103422838#1 103422838#2 103422838#3 103422838#4 103422838#5 103422838#6 103422838#7 103422838#8 103422838#9 103422838#10 352043735#1 -197922720#1 -197922720#0 -698085348#5 -698085348#4 -698085348#3 -698085348#2 -698085348#1 -698085348#0 813070237 101806643#0 101806643#1 101806643#2 943798929#1 943798929#2 101791115#0 -168022243#2 -168022243#1 -168022243#0 -101791149#2
" />
<route id="2_3_1" edges="
-95974191#0 83053807#3 83053807#0 83053807#1 83053807#2 95974191#0 95974191#1 95974191#2 95974191#3 95974191#4 95974191#5 95974191#6 103422838#0 103422838#1 103422838#2 103422838#3 103422838#4 103422838#5 103422838#6 103422838#7 103422838#8 103422838#9 103422838#10 352043735#1 -197922720#1 -197922720#0 -698085348#5 -698085348#4 -698085348#3 -698085348#2 -698085348#1 -698085348#0 813070237 101806643#0 101806643#1 -101806630 101806630 101806643#2 943798929#1 943798929#2 101791115#0 -168022243#2 -168022243#1 -168022243#0 -101791149#2
" />
<route id="2_3_2" edges="
-95974191#0 83053807#3 -208120459#2 208120459#2 83053807#0 83053807#1 83053807#2 95974191#0 95974191#1 95974191#2 95974191#3 95974191#4 95974191#5 95974191#6 103422838#0 103422838#1 103422838#2 103422838#3 103422838#4 103422838#5 103422838#6 103422838#7 103422838#8 103422838#9 103422838#10 352043735#1 -197922720#1 -197922720#0 -698085348#5 -698085348#4 -698085348#3 -698085348#2 -698085348#1 -698085348#0 813070237 101806643#0 101806643#1 101806643#2 943798929#1 943798929#2 101791115#0 -168022243#2 -168022243#1 -168022243#0 -101791149#2
" />
<route id="2_3_3" edges="
-95974191#0 83053807#3 83053807#0 83053807#1 83053807#2 95974191#0 95974191#1 95974191#2 95974191#3 95974191#4 95974191#5 95974191#6 208311530#0 -208311530#0 103422838#0 103422838#1 103422838#2 103422838#3 103422838#4 103422838#5 103422838#6 103422838#7 103422838#8 103422838#9 103422838#10 352043735#1 -197922720#1 -197922720#0 -698085348#5 -698085348#4 -698085348#3 -698085348#2 -698085348#1 -698085348#0 813070237 101806643#0 101806643#1 101806643#2 943798929#1 943798929#2 101791115#0 -168022243#2 -168022243#1 -168022243#0 -101791149#2
" />
<route id="2_23_0" edges="
-95974191#0 83053807#3 83053807#0 83053807#1 83053607#0 83053607#1 83053607#2 83053607#3 83053663#0 83053663#1 1167972169#0 1167972169#1 1167972169#2 -103426314#2 -103426314#1 -103426314#0
" />
<route id="2_23_1" edges="
-95974191#0 83053807#3 83053807#0 83053807#1 83053607#0 83053607#1 83053607#2 83053607#3 83053663#0 83053663#1 103426323 240663747 1167972169#1 1167972169#2 -103426314#2 -103426314#1 -103426314#0
" />
<route id="2_23_2" edges="
-95974191#0 83053807#3 83053807#0 83053807#1 83053607#0 83053607#1 83053607#2 83053607#3 83053663#0 83053663#1 1167972169#0 -1167972169#0 103426323 240663747 1167972169#1 1167972169#2 -103426314#2 -103426314#1 -103426314#0
" />
<route id="2_23_3" edges="
-95974191#0 83053807#3 83053807#0 83053807#1 83053607#0 83053607#1 83053607#2 83053607#3 83053663#0 83053663#1 1167972169#0 1167972169#1 1167972169#2 -103426298 103426298 -103426314#2 -103426314#1 -103426314#0
" />
<route id="2_109_0" edges="
-95974191#0 83053807#3 83053807#0 83053807#1 83053607#0 83053607#1 83053607#2 83053607#3 83053663#0 83053663#1 94163779#0 94163779#1 988322367#1 988322367#2 -988322365#9 -988322365#8 -988322365#7 -103426318#4 103426350
" />
<route id="2_109_1" edges="
-95974191#0 83053807#3 83053807#0 83053807#1 83053607#0 83053607#1 83053607#2 83053607#3 83053663#0 83053663#1 1167972169#0 -1167972169#0 94163779#0 94163779#1 988322367#1 988322367#2 -988322365#9 -988322365#8 -988322365#7 -103426318#4 103426350
" />
<route id="2_109_2" edges="
-95974191#0 83053807#3 -208120459#2 208120459#2 83053807#0 83053807#1 83053607#0 83053607#1 83053607#2 83053607#3 83053663#0 83053663#1 94163779#0 94163779#1 988322367#1 988322367#2 -988322365#9 -988322365#8 -988322365#7 -103426318#4 103426350
" />
<route id="2_109_3" edges="
-95974191#0 83053807#3 83053807#0 83053807#1 83053607#0 83053607#1 83053607#2 83053607#3 83053663#0 83053663#1 94163779#0 94163779#1 988322367#1 988322367#2 -988322365#9 -988322365#8 -988322365#7 -988322365#6 988322365#6 -103426318#4 103426350
" />
<route id="2_124_0" edges="
-95974191#0 83053807#3 83053807#0 83053807#1 83053607#0 83053607#1 83053607#2 83053607#3 83053663#0 83053663#1 1167972169#0 1167972169#1 1167972169#2 -103426314#2 -103426314#1 -103426314#0 103426331#5 103426331#6 103426331#7 472357199#0 472357199#1 -472357199#1
" />
<route id="2_124_1" edges="
-95974191#0 83053807#3 83053807#0 83053807#1 83053607#0 83053607#1 83053607#2 83053607#3 83053663#0 83053663#1 1167972169#0 1167972169#1 1167972169#2 -103426314#2 -103426314#1 -103426314#0 103426331#5 103426331#6 103426331#7 -103426338#3 -103426346 103890967#1 -472357199#1
" />
<route id="2_124_2" edges="
-95974191#0 83053807#3 83053807#0 83053807#1 83053607#0 83053607#1 83053607#2 83053607#3 83053663#0 83053663#1 103426323 240663747 1167972169#1 1167972169#2 -103426314#2 -103426314#1 -103426314#0 103426331#5 103426331#6 103426331#7 472357199#0 472357199#1 -472357199#1
" />
<route id="2_124_3" edges="
-95974191#0 83053807#3 83053807#0 83053807#1 83053607#0 83053607#1 83053607#2 83053607#3 83053663#0 83053663#1 1167972169#0 1167972169#1 1167972169#2 -103426314#2 -103426314#1 -103426314#0 103426331#5 103426331#6 103426331#7 472357199#0 -472357199#0 -103426338#3 -103426346 103890967#1 -472357199#1
" />
<route id="2_224_0" edges="
-95974191#0 83053807#3 83053807#0 83053807#1 83053807#2 95974191#0 95974191#1 95974191#2 95974191#3 95974191#4 95974191#5 95974191#6 103422838#0 103422838#1 103422838#2 103422838#3 103422838#4 103422838#5 103422838#6 103422838#7 103422838#8 103422838#9 103422838#10 352043735#1 813070235 -352043735#0 -103422838#9 -103422838#8
" />
<route id="2_224_1" edges="
-95974191#0 83053807#3 -208120459#2 208120459#2 83053807#0 83053807#1 83053807#2 95974191#0 95974191#1 95974191#2 95974191#3 95974191#4 95974191#5 95974191#6 103422838#0 103422838#1 103422838#2 103422838#3 103422838#4 103422838#5 103422838#6 103422838#7 103422838#8 103422838#9 103422838#10 352043735#1 813070235 -352043735#0 -103422838#9 -103422838#8
" />
<route id="2_224_2" edges="
-95974191#0 83053807#3 83053807#0 83053807#1 83053607#0 -83053607#0 83053807#2 95974191#0 95974191#1 95974191#2 95974191#3 95974191#4 95974191#5 95974191#6 103422838#0 103422838#1 103422838#2 103422838#3 103422838#4 103422838#5 103422838#6 103422838#7 103422838#8 103422838#9 103422838#10 352043735#1 813070235 -352043735#0 -103422838#9 -103422838#8
" />
<route id="2_224_3" edges="
-95974191#0 83053807#3 83053807#0 83053807#1 83053807#2 95974191#0 95974191#1 95974191#2 95974191#3 95974191#4 95974191#5 95974191#6 -964083525#4 -964083525#3 -964083525#2 103422861 103422838#2 103422838#3 103422838#4 103422838#5 103422838#6 103422838#7 103422838#8 103422838#9 103422838#10 352043735#1 813070235 -352043735#0 -103422838#9 -103422838#8
" />
<route id="3_4_0" edges="
-953231000#0 953231000#0 953231000#1 -472357189 -220245926#2 298358358 813632717#0 813632717#1 103422889#0 103422889#1 103422889#2 103422854#0 103422854#1 103422854#2 625541249#1 -208312010 -208311530#2 -208311530#1 -208311530#0 103422838#0 103422838#1 103422838#2 103422838#3 103422838#4 103422838#5 103422838#6 103422838#7 103422838#8 103422838#9 103422838#10 352043735#1 -197922720#1 -197922720#0 -698085348#5 -698085348#4 -698085348#3 -698085348#2 -698085348#1 -698085348#0 813070237 101806643#0 101806643#1 101806643#2 943798929#1 943798929#2 101791115#0 -168022243#2 -168022243#1 -168022243#0 -101791149#2 -101791149#1 -101791149#0 -221452293#5 -221452293#4 -221452293#3 -221452293#2 -221452293#1
" />
<route id="3_4_1" edges="
-953231000#0 953231000#0 953231000#1 -472357189 -220245926#2 298358358 813632717#0 813632717#1 103422889#0 103422889#1 103422889#2 103422854#0 -103422850 103422850 103422854#1 103422854#2 625541249#1 -208312010 -208311530#2 -208311530#1 -208311530#0 103422838#0 103422838#1 103422838#2 103422838#3 103422838#4 103422838#5 103422838#6 103422838#7 103422838#8 103422838#9 103422838#10 352043735#1 -197922720#1 -197922720#0 -698085348#5 -698085348#4 -698085348#3 -698085348#2 -698085348#1 -698085348#0 813070237 101806643#0 101806643#1 101806643#2 943798929#1 943798929#2 101791115#0 -168022243#2 -168022243#1 -168022243#0 -101791149#2 -101791149#1 -101791149#0 -221452293#5 -221452293#4 -221452293#3 -221452293#2 -221452293#1
" />
<route id="3_4_2" edges="
-953231000#0 953231000#0 953231000#1 -472357189 -220245926#2 298358358 813632717#0 813632717#1 103422889#0 103422889#1 103422889#2 103422854#0 103422854#1 103422854#2 625541249#1 -208312010 -208311530#2 -208311530#1 -208311530#0 103422838#0 103422838#1 103422838#2 103422838#3 103422838#4 103422838#5 103422838#6 103422838#7 103422838#8 103422838#9 103422838#10 352043735#1 -197922720#1 -197922720#0 -698085348#5 -698085348#4 -698085348#3 -698085348#2 -698085348#1 -698085348#0 813070237 252858021#0 -101806600 -101806596#0 101806643#1 101806643#2 943798929#1 943798929#2 101791115#0 -168022243#2 -168022243#1 -168022243#0 -101791149#2 -101791149#1 -101791149#0 -221452293#5 -221452293#4 -221452293#3 -221452293#2 -221452293#1
" />
<route id="3_4_3" edges="
-953231000#0 953231000#0 953231000#1 -472357189 -220245926#2 298358358 813632717#0 813632717#1 103422889#0 103422889#1 103422889#2 103422854#0 103422854#1 103422854#2 625541249#1 -208312010 -208311530#2 -208311530#1 -208311530#0 103422838#0 103422838#1 103422838#2 103422838#3 103422838#4 103422838#5 103422838#6 103422838#7 103422838#8 103422838#9 103422838#10 352043735#1 -197922720#1 -197922720#0 -698085348#5 -698085348#4 -698085348#3 -698085348#2 -698085348#1 -698085348#0 813070237 101806643#0 101806643#1 101806643#2 943798929#1 943798929#2 101791115#0 -168022243#2 -168022243#1 -168022243#0 -101791149#2 -101791149#1 -101791149#0 221452293#6 -221452293#6 -221452293#5 -221452293#4 -221452293#3 -221452293#2 -221452293#1
" />
<route id="3_14_0" edges="
-953231000#0 953231000#0 953231000#1 -472357189 -220245926#2 298358358 813632717#0 813632717#1 103422889#0 103422889#1 103422889#2 103422854#0 103422854#1 103422854#2 625541249#1 -208312010 -208311530#2 -208311530#1 -208311530#0 103422838#0 103422838#1 103422838#2 103422838#3 103422838#4 103422838#5 103422838#6 103422838#7 103422838#8 103422838#9 103422838#10 352043735#1 -197922720#1 -197922720#0 -698085348#5 -698085348#4 -698085348#3 -698085348#2 -698085348#1 -698085348#0 813070237 101806643#0 101806643#1 101806643#2 943798929#1 943798929#2 101791115#0 -168022243#2 -168022243#1 -168022243#0 -101791149#2 -101791149#1 -101791149#0 -221452293#5 -221452293#4
" />
<route id="3_14_1" edges="
-953231000#0 953231000#0 953231000#1 -472357189 -220245926#2 298358358 813632717#0 813632717#1 103422889#0 103422889#1 103422889#2 103422854#0 103422854#1 103422854#2 625541249#1 -208312010 -208311530#2 103422867 -103422867 -208311530#1 -208311530#0 103422838#0 103422838#1 103422838#2 103422838#3 103422838#4 103422838#5 103422838#6 103422838#7 103422838#8 103422838#9 103422838#10 352043735#1 -197922720#1 -197922720#0 -698085348#5 -698085348#4 -698085348#3 -698085348#2 -698085348#1 -698085348#0 813070237 101806643#0 101806643#1 101806643#2 943798929#1 943798929#2 101791115#0 -168022243#2 -168022243#1 -168022243#0 -101791149#2 -101791149#1 -101791149#0 -221452293#5 -221452293#4
" />
<route id="3_14_2" edges="
-953231000#0 953231000#0 953231000#1 -472357189 -220245926#2 298358358 813632717#0 813632717#1 103422889#0 103422889#1 103422889#2 103422854#0 103422854#1 103422854#2 625541249#1 -208312010 -208311530#2 -208311530#1 -208311530#0 103422838#0 103422838#1 103422838#2 103422838#3 103422838#4 103422838#5 103422838#6 103422838#7 103422838#8 103422838#9 103422838#10 352043735#1 -197922720#1 -197922720#0 -698085348#5 -698085348#4 -698085348#3 -698085348#2 -698085348#1 -698085348#0 813070237 101806643#0 101806643#1 101806643#2 943798929#1 943798929#2 101791115#0 -168022243#2 -168022243#1 -168022243#0 -101791149#2 -101791149#1 -101791149#0 221452293#6 -221452293#6 -221452293#5 -221452293#4
" />
<route id="3_14_3" edges="
-953231000#0 953231000#0 953231000#1 -472357189 -220245926#2 298358358 813632717#0 813632717#1 103422889#0 103422889#1 103422889#2 103422854#0 103422854#1 103422854#2 625541249#1 -208312010 -103422878#6 103422878#6 -208311530#2 -208311530#1 -208311530#0 103422838#0 103422838#1 103422838#2 103422838#3 103422838#4 103422838#5 103422838#6 103422838#7 103422838#8 103422838#9 103422838#10 352043735#1 -197922720#1 -197922720#0 -698085348#5 -698085348#4 -698085348#3 -698085348#2 -698085348#1 -698085348#0 813070237 101806643#0 101806643#1 101806643#2 943798929#1 943798929#2 101791115#0 -168022243#2 -168022243#1 -168022243#0 -101791149#2 -101791149#1 -101791149#0 -221452293#5 -221452293#4
" />
<route id="3_62_0" edges="
-953231000#0 953231000#0 953231000#1 -472357189 -220245926#2 298358358 813632717#0 813632717#1 103422889#0 103422889#1 103422889#2 103422854#0 103422854#1 103422854#2 625541249#1 -208312010 -208311530#2 -208311530#1 -208311530#0 103422838#0 103422838#1 103422838#2 103422838#3 103422838#4 103422838#5 103422838#6 103422838#7 103422838#8 103422838#9 103422838#10 352043735#1 -197922720#1 -197922720#0 -698085348#5 -698085348#4 -698085348#3 -698085348#2 -698085348#1 -698085348#0 813070237 252858021#0 252858021#1 -252857979#2 -252857979#1 -252857979#0 -197922721 80733788#0
" />
<route id="3_62_1" edges="
-953231000#0 953231000#0 953231000#1 -472357189 -220245926#2 298358358 813632717#0 813632717#1 103422889#0 103422889#1 103422889#2 103422854#0 103422854#1 103422854#2 625541249#1 -208312010 -103422878#6 103422878#6 -208311530#2 -208311530#1 -208311530#0 103422838#0 103422838#1 103422838#2 103422838#3 103422838#4 103422838#5 103422838#6 103422838#7 103422838#8 103422838#9 103422838#10 352043735#1 -197922720#1 -197922720#0 -698085348#5 -698085348#4 -698085348#3 -698085348#2 -698085348#1 -698085348#0 813070237 252858021#0 252858021#1 -252857979#2 -252857979#1 -252857979#0 -197922721 80733788#0
" />
<route id="3_62_2" edges="
-953231000#0 953231000#0 953231000#1 -472357189 -220245926#2 298358358 813632717#0 813632717#1 -103422876#1 -103422876#0 272554973#3 272554973#4 272554973#5 272554973#6 272554973#7 625541249#0 625541249#1 -208312010 -208311530#2 -208311530#1 -208311530#0 103422838#0 103422838#1 103422838#2 103422838#3 103422838#4 103422838#5 103422838#6 103422838#7 103422838#8 103422838#9 103422838#10 352043735#1 -197922720#1 -197922720#0 -698085348#5 -698085348#4 -698085348#3 -698085348#2 -698085348#1 -698085348#0 813070237 252858021#0 252858021#1 -252857979#2 -252857979#1 -252857979#0 -197922721 80733788#0
" />
<route id="3_62_3" edges="
-953231000#0 953231000#0 953231000#1 -472357189 -220245926#2 298358358 813632717#0 813632717#1 103422889#0 103422889#1 103422889#2 103422854#0 103422854#1 103422854#2 625541249#1 -208312010 -208311530#2 -208311530#1 -208311530#0 103422838#0 103422838#1 -103422861 103422861 103422838#2 103422838#3 103422838#4 103422838#5 103422838#6 103422838#7 103422838#8 103422838#9 103422838#10 352043735#1 -197922720#1 -197922720#0 -698085348#5 -698085348#4 -698085348#3 -698085348#2 -698085348#1 -698085348#0 813070237 252858021#0 252858021#1 -252857979#2 -252857979#1 -252857979#0 -197922721 80733788#0
" />
<route id="3_123_0" edges="
-953231000#0 953231000#0 953231000#1 -472357189 -220245945 220245947#3 220245947#1 220245939 -953231001 103422881#3 103422881#0 221042130#0 221042130#1 221042130#2 221042130#3 221042130#4 267041310#0 267041310#1 267041310#2 267041310#3 267041310#4 267041310#5 267041310#6 267041310#7 267041310#8 -532735658 103426331#1 103426331#2 103426331#3 103426331#4 103426331#5 103426331#6 103426331#7 -103426338#3 -103426346 -103890967#0 103426308#1 -103890934#1 -103890934#0 1167972169#15 103890955#0 103890955#1 103890932#0 -103890940
" />
<route id="3_123_1" edges="
-953231000#0 953231000#0 953231000#1 -472357189 -220245945 220245947#3 220245947#1 220245939 -953231001 103422881#3 103422881#0 221042130#0 221042130#1 221042130#2 221042130#3 221042130#4 267041310#0 267041310#1 267041310#2 267041310#3 267041310#4 267041310#5 267041310#6 267041310#7 267041310#8 -532735658 103426331#1 103426331#2 103426331#3 103426331#4 103426331#5 103426331#6 103426331#7 -103426338#3 -103426338#2 103426308#0 103426308#1 -103890934#1 -103890934#0 1167972169#15 103890955#0 103890955#1 103890932#0 -103890940
" />
<route id="3_123_2" edges="
-953231000#0 953231000#0 953231000#1 -472357189 -220245945 220245947#3 220245947#1 220245939 -953231001 103422881#3 103422881#0 221042130#0 221042130#1 221042130#2 221042130#3 221042130#4 267041310#0 267041310#1 267041310#2 267041310#3 267041310#4 267041310#5 267041310#6 267041310#7 267041310#8 -532735658 103426331#1 103426331#2 103426331#3 103426331#4 103426331#5 103426331#6 103426331#7 -103426338#3 -103426346 -103890967#0 103426308#1 -103890934#1 -103890934#0 1167972169#15 103890955#0 252732919#0 103890940 -103890940
" />
<route id="3_123_3" edges="
-953231000#0 953231000#0 953231000#1 -472357189 -220245945 220245947#3 220245947#1 220245939 -953231001 103422881#3 103422881#0 221042130#0 221042130#1 221042130#2 221042130#3 221042130#4 267041310#0 267041310#1 267041310#2 267041310#3 267041310#4 267041310#5 267041310#6 267041310#7 267041310#8 -532735658 103426331#1 103426331#2 103426331#3 103426331#4 103426331#5 103426331#6 103426331#7 -103426338#3 -103426338#2 103426308#0 103426308#1 -103890934#1 -103890934#0 1167972169#15 103890955#0 252732919#0 103890940 -103890940
" />
<route id="3_176_0" edges="
-953231000#0 953231000#0 953231000#1 -472357189 -220245926#2 298358358 813632717#0 813632717#1 103422889#0 103422889#1 103422889#2 103422854#0 103422854#1 103422854#2 625541249#1 -208312010 -208311530#2 -208311530#1 -208311530#0 103422838#0 103422838#1 103422838#2 103422838#3 103422838#4 103422838#5 103422838#6 103422838#7 103422838#8 103422838#9 103422838#10 352043735#1 -197922720#1 -197922720#0 -698085348#5 -698085348#4 -698085348#3 -698085348#2 -698085348#1 -698085348#0 813070237 101806643#0 101806643#1 101806643#2 943798929#1 943798929#2 101791115#0 -168022243#2 -168022243#1 -168022243#0 -101791149#2 -101791149#1 -101791149#0 -221452293#5 -221452293#4 -221452293#3 -221452293#2 -221452293#1 -221452293#0 101789139#0 101789139#1 101789139#2 -101789139#2
" />
<route id="3_176_1" edges="